(PID.TID 0000.0001) 
(PID.TID 0000.0001) // ======================================================
(PID.TID 0000.0001) //                      MITgcm UV
(PID.TID 0000.0001) //                      =========
(PID.TID 0000.0001) // ======================================================
(PID.TID 0000.0001) // execution environment starting up...
(PID.TID 0000.0001) 
(PID.TID 0000.0001) // MITgcmUV version:  checkpoint68c
(PID.TID 0000.0001) // Build user:        jm_c
(PID.TID 0000.0001) // Build host:        villon
(PID.TID 0000.0001) // Build date:        Sat Oct 16 15:20:32 EDT 2021
(PID.TID 0000.0001) 
(PID.TID 0000.0001) // =======================================================
(PID.TID 0000.0001) // Execution Environment parameter file "eedata"
(PID.TID 0000.0001) // =======================================================
(PID.TID 0000.0001) ># Example "eedata" file
(PID.TID 0000.0001) ># Lines beginning "#" are comments
(PID.TID 0000.0001) >#  nTx      :: No. threads per process in X
(PID.TID 0000.0001) >#  nTy      :: No. threads per process in Y
(PID.TID 0000.0001) ># debugMode :: print debug msg (sequence of S/R calls)
(PID.TID 0000.0001) ># useCubedSphereExchange :: use Cubed-Sphere type topology for EXCH
(PID.TID 0000.0001) > &EEPARMS
(PID.TID 0000.0001) > useCoupler=.TRUE.,
(PID.TID 0000.0001) > useCubedSphereExchange=.TRUE.,
(PID.TID 0000.0001) >#debugMode=.TRUE.,
(PID.TID 0000.0001) ># Activate one line below to support 2, 3 or 6 way multi-threading
(PID.TID 0000.0001) > nTx=1,
(PID.TID 0000.0001) >#nTx=2,
(PID.TID 0000.0001) >#nTx=3,
(PID.TID 0000.0001) >#nTx=6,
(PID.TID 0000.0001) > /
(PID.TID 0000.0001) ># Note: Some systems use & as the namelist terminator (as shown here).
(PID.TID 0000.0001) >#       Other systems use a / character.
(PID.TID 0000.0001) 
(PID.TID 0000.0001) // =======================================================
(PID.TID 0000.0001) // Computational Grid Specification ( see files "SIZE.h" )
(PID.TID 0000.0001) //                                  ( and "eedata"       )
(PID.TID 0000.0001) // =======================================================
(PID.TID 0000.0001)      nPx =    1 ; /* No. processes in X */
(PID.TID 0000.0001)      nPy =    1 ; /* No. processes in Y */
(PID.TID 0000.0001)      nSx =    6 ; /* No. tiles in X per process */
(PID.TID 0000.0001)      nSy =    1 ; /* No. tiles in Y per process */
(PID.TID 0000.0001)      sNx =   24 ; /* Tile size in X */
(PID.TID 0000.0001)      sNy =   24 ; /* Tile size in Y */
(PID.TID 0000.0001)      OLx =    2 ; /* Tile overlap distance in X */
(PID.TID 0000.0001)      OLy =    2 ; /* Tile overlap distance in Y */
(PID.TID 0000.0001)      nTx =    1 ; /* No. threads in X per process */
(PID.TID 0000.0001)      nTy =    1 ; /* No. threads in Y per process */
(PID.TID 0000.0001)       Nr =    5 ; /* No. levels in the vertical   */
(PID.TID 0000.0001)       Nx =  144 ; /* Total domain size in X ( = nPx*nSx*sNx ) */
(PID.TID 0000.0001)       Ny =   24 ; /* Total domain size in Y ( = nPy*nSy*sNy ) */
(PID.TID 0000.0001)   nTiles =    6 ; /* Total no. tiles per process ( = nSx*nSy ) */
(PID.TID 0000.0001)   nProcs =    1 ; /* Total no. processes ( = nPx*nPy ) */
(PID.TID 0000.0001) nThreads =    1 ; /* Total no. threads per process ( = nTx*nTy ) */
(PID.TID 0000.0001) usingMPI =    T ; /* Flag used to control whether MPI is in use */
(PID.TID 0000.0001)                   /*  note: To execute a program with MPI calls */
(PID.TID 0000.0001)                   /*  it must be launched appropriately e.g     */
(PID.TID 0000.0001)                   /*  "mpirun -np 64 ......"                    */
(PID.TID 0000.0001) useCoupler=   T ; /* Flag used to control communications with   */
(PID.TID 0000.0001)                   /*  other model components, through a coupler */
(PID.TID 0000.0001) useNest2W_parent =    F ;/* Control 2-W Nesting comm */
(PID.TID 0000.0001) useNest2W_child  =    F ;/* Control 2-W Nesting comm */
(PID.TID 0000.0001) debugMode =    F ; /* print debug msg. (sequence of S/R calls)  */
(PID.TID 0000.0001) printMapIncludesZeros=    F ; /* print zeros in Std.Output maps */
(PID.TID 0000.0001) maxLengthPrt1D=   65 /* maxLength of 1D array printed to StdOut */
(PID.TID 0000.0001) 
(PID.TID 0000.0001) ======= Starting MPI parallel Run =========
(PID.TID 0000.0001)  My Processor Name (len:  6 ) = villon
(PID.TID 0000.0001)  Located at (  0,  0) on processor grid (0:  0,0:  0)
(PID.TID 0000.0001)  Origin at  (     1,     1) on global grid (1:   144,1:    24)
(PID.TID 0000.0001)  North neighbor = processor 0000
(PID.TID 0000.0001)  South neighbor = processor 0000
(PID.TID 0000.0001)   East neighbor = processor 0000
(PID.TID 0000.0001)   West neighbor = processor 0000
(PID.TID 0000.0001) // ======================================================
(PID.TID 0000.0001) // Mapping of tiles to threads
(PID.TID 0000.0001) // ======================================================
(PID.TID 0000.0001) // -o- Thread   1, tiles (   1:   6,   1:   1)
(PID.TID 0000.0001) 
(PID.TID 0000.0001) W2_READPARMS: file data.exch2 not found
(PID.TID 0000.0001) => use W2_EXCH2 default: regular 6-facets Cube
(PID.TID 0000.0001) W2_useE2ioLayOut=    T ;/* T: use Exch2 glob IO map; F: use model default */
(PID.TID 0000.0001) W2_mapIO        =  -1 ; /* select option for Exch2 global-IO map */
(PID.TID 0000.0001) W2_printMsg     =  -1 ; /* select option for printing information */
(PID.TID 0000.0001) ===== Start setting W2 TOPOLOGY:
(PID.TID 0000.0001)  write to log-file: w2_tile_topology.0000.log
(PID.TID 0000.0001) =====       setting W2 TOPOLOGY: Done
(PID.TID 0000.0001) 
(PID.TID 0000.0001)  INI_PARMS: opening model parameter file "data"
(PID.TID 0000.0001)  OPEN_COPY_DATA_FILE: opening file data
(PID.TID 0000.0001) // =======================================================
(PID.TID 0000.0001) // Parameter file "data"
(PID.TID 0000.0001) // =======================================================
(PID.TID 0000.0001) ># ====================
(PID.TID 0000.0001) ># | Model parameters |
(PID.TID 0000.0001) ># ====================
(PID.TID 0000.0001) >#
(PID.TID 0000.0001) ># Continuous equation parameters
(PID.TID 0000.0001) > &PARM01
(PID.TID 0000.0001) > tRef=289.6, 298.1, 314.5, 335.8, 437.4,
(PID.TID 0000.0001) >#tRef=245.2, 271.0, 286.1, 337.0, 468.0,
(PID.TID 0000.0001) > sRef=5*0.,
(PID.TID 0000.0001) > no_slip_sides=.FALSE.,
(PID.TID 0000.0001) > no_slip_bottom=.FALSE.,
(PID.TID 0000.0001) > buoyancyRelation='ATMOSPHERIC',
(PID.TID 0000.0001) > eosType='IDEALG',
(PID.TID 0000.0001) > atm_Rq=0.6078E-3,
(PID.TID 0000.0001) > Integr_GeoPot=2,
(PID.TID 0000.0001) > selectFindRoSurf=1,
(PID.TID 0000.0001) > gravity=9.81,
(PID.TID 0000.0001) > rhonil=1.0,
(PID.TID 0000.0001) > rhoConst=1.0,
(PID.TID 0000.0001) > rhoConstFresh=1000.,
(PID.TID 0000.0001) > implicitFreeSurface=.TRUE.,
(PID.TID 0000.0001) > exactConserv=.TRUE.,
(PID.TID 0000.0001) > linFSConserveTr=.TRUE.,
(PID.TID 0000.0001) >#- set wrong celsius2K to reproduce old results:
(PID.TID 0000.0001) > celsius2K=273.16,
(PID.TID 0000.0001) >#select_rStar=2,
(PID.TID 0000.0001) >#nonlinFreeSurf=4,
(PID.TID 0000.0001) > hFacInf=0.2,
(PID.TID 0000.0001) > hFacSup=2.0,
(PID.TID 0000.0001) > uniformLin_PhiSurf=.FALSE.,
(PID.TID 0000.0001) >#hFacMin=0.2,
(PID.TID 0000.0001) > saltAdvScheme=2,
(PID.TID 0000.0001) > momViscosity=.FALSE.,
(PID.TID 0000.0001) > vectorInvariantMomentum=.TRUE.,
(PID.TID 0000.0001) >#useJamartWetPoints=.TRUE.,
(PID.TID 0000.0001) > useAbsVorticity=.TRUE.,
(PID.TID 0000.0001) > SadournyCoriolis=.TRUE.,
(PID.TID 0000.0001) > selectKEscheme=3,
(PID.TID 0000.0001) >#staggerTimeStep=.TRUE.,
(PID.TID 0000.0001) > implicitIntGravWave=.TRUE.,
(PID.TID 0000.0001) > readBinaryPrec=64,
(PID.TID 0000.0001) > writeBinaryPrec=64,
(PID.TID 0000.0001) > useSingleCpuIO=.TRUE.,
(PID.TID 0000.0001) > debuglevel=2,
(PID.TID 0000.0001) > /
(PID.TID 0000.0001) >
(PID.TID 0000.0001) ># Elliptic solver parameters
(PID.TID 0000.0001) > &PARM02
(PID.TID 0000.0001) > cg2dMaxIters=200,
(PID.TID 0000.0001) >#cg2dTargetResidual=1.E-12,
(PID.TID 0000.0001) > cg2dTargetResWunit=1.E-17,
(PID.TID 0000.0001) > cg3dMaxIters=40,
(PID.TID 0000.0001) > cg3dTargetResidual=1.E-4,
(PID.TID 0000.0001) > /
(PID.TID 0000.0001) >
(PID.TID 0000.0001) ># Time stepping parameters
(PID.TID 0000.0001) > &PARM03
(PID.TID 0000.0001) > nIter0=556243200,
(PID.TID 0000.0001) >#nTimeSteps=2160,
(PID.TID 0000.0001) > deltaT=1200.0,
(PID.TID 0000.0001) > pChkptFreq=2592000.,
(PID.TID 0000.0001) > taveFreq=0,
(PID.TID 0000.0001) > dumpFreq=0,
(PID.TID 0000.0001) > monitorFreq=259200.,
(PID.TID 0000.0001) >#abEps=0.1,
(PID.TID 0000.0001) >#forcing_In_AB=.FALSE.,
(PID.TID 0000.0001) >#cAdjFreq=0.,
(PID.TID 0000.0001) > alph_AB=0.5,
(PID.TID 0000.0001) > beta_AB=0.281105,
(PID.TID 0000.0001) > doAB_onGtGs=.FALSE.,
(PID.TID 0000.0001) > pickupStrictlyMatch=.FALSE.,
(PID.TID 0000.0001) > nTimeSteps=30,
(PID.TID 0000.0001) > monitorFreq=1200.,
(PID.TID 0000.0001) > /
(PID.TID 0000.0001) >
(PID.TID 0000.0001) ># Gridding parameters
(PID.TID 0000.0001) > &PARM04
(PID.TID 0000.0001) > usingCurvilinearGrid=.TRUE.,
(PID.TID 0000.0001) > horizGridFile='grid_cs24',
(PID.TID 0000.0001) > radius_fromHorizGrid=6370.E3,
(PID.TID 0000.0001) > rSphere=6370.E3,
(PID.TID 0000.0001) > delR=100.E2, 250.E2, 300.E2, 200.E2, 150.E2,
(PID.TID 0000.0001) > Ro_SeaLevel=1.E5,
(PID.TID 0000.0001) > /
(PID.TID 0000.0001) >
(PID.TID 0000.0001) ># Input datasets
(PID.TID 0000.0001) > &PARM05
(PID.TID 0000.0001) ># hydrogThetaFile='Drake.c32.A.T.ini.bin',
(PID.TID 0000.0001) ># hydrogSaltFile ='Drake.c32.A.S.ini.bin',
(PID.TID 0000.0001) ># uVelInitFile   ='Drake.c32.A.U.ini.bin',
(PID.TID 0000.0001) ># vVelInitFile   ='Drake.c32.A.V.ini.bin',
(PID.TID 0000.0001) > /
(PID.TID 0000.0001) 
(PID.TID 0000.0001)  INI_PARMS ; starts to read PARM01
(PID.TID 0000.0001)  INI_PARMS ; read PARM01 : OK
(PID.TID 0000.0001)  INI_PARMS ; starts to read PARM02
(PID.TID 0000.0001)  INI_PARMS ; read PARM02 : OK
(PID.TID 0000.0001)  INI_PARMS ; starts to read PARM03
(PID.TID 0000.0001)  INI_PARMS ; read PARM03 : OK
(PID.TID 0000.0001)  INI_PARMS ; starts to read PARM04
(PID.TID 0000.0001)  INI_PARMS ; read PARM04 : OK
(PID.TID 0000.0001)  INI_PARMS ; starts to read PARM05
(PID.TID 0000.0001)  INI_PARMS ; read PARM05 : OK
(PID.TID 0000.0001)  INI_PARMS: finished reading file "data"
(PID.TID 0000.0001)  PACKAGES_BOOT: opening data.pkg
(PID.TID 0000.0001)  OPEN_COPY_DATA_FILE: opening file data.pkg
(PID.TID 0000.0001) // =======================================================
(PID.TID 0000.0001) // Parameter file "data.pkg"
(PID.TID 0000.0001) // =======================================================
(PID.TID 0000.0001) ># Packages
(PID.TID 0000.0001) >#     useAIM  :: use Atmospheric Intermediate complexity Model
(PID.TID 0000.0001) >#     useLand :: use (simple) Land package to compute surf. BC over land
(PID.TID 0000.0001) >#   useThSIce :: use Therm. SeaIce package (+slab ocean)
(PID.TID 0000.0001) > &PACKAGES
(PID.TID 0000.0001) > useAIM=.TRUE.,
(PID.TID 0000.0001) > useLand=.TRUE.,
(PID.TID 0000.0001) > useThSIce=.TRUE.,
(PID.TID 0000.0001) > useSHAP_FILT=.TRUE.,
(PID.TID 0000.0001) > usediagnostics=.TRUE.,
(PID.TID 0000.0001) > /
(PID.TID 0000.0001) 
(PID.TID 0000.0001)  PACKAGES_BOOT: finished reading data.pkg
(PID.TID 0000.0001)  PACKAGES_BOOT: On/Off package Summary
 --------  pkgs with a standard "usePKG" On/Off switch in "data.pkg":  --------
 pkg/shap_filt            compiled   and   used ( useSHAP_FILT             = T )
 pkg/thsice               compiled   and   used ( useThSIce                = T )
 pkg/land                 compiled   and   used ( useLand                  = T )
 pkg/aim_v23              compiled   and   used ( useAIM                   = T )
 pkg/diagnostics          compiled   and   used ( useDiagnostics           = T )
 -------- pkgs without standard "usePKG" On/Off switch in "data.pkg":  --------
 pkg/generic_advdiff      compiled   and   used ( useGAD                   = T )
 pkg/mom_common           compiled   and   used ( momStepping              = T )
 pkg/mom_vecinv           compiled   and   used ( +vectorInvariantMomentum = T )
 pkg/monitor              compiled   and   used ( monitorFreq > 0.         = T )
 pkg/timeave              compiled but not used ( taveFreq > 0.            = F )
 pkg/debug                compiled but not used ( debugMode                = F )
 pkg/compon_communic      compiled   and   used ( useCoupler               = T )
 pkg/atm_compon_interf    compiled   and   used ( useCoupler               = T )
 pkg/exch2                compiled   and   used
 pkg/rw                   compiled   and   used
 pkg/mdsio                compiled   and   used
 pkg/atm_common           compiled   ( used ? )
(PID.TID 0000.0001)  PACKAGES_BOOT: End of package Summary
(PID.TID 0000.0001) 
 CPL_IMPORT_CPLPARMS: Recv parBuf=     0     2     3     0     0     3
(PID.TID 0000.0001)  SHAP_FILT_READPARMS: opening data.shap
(PID.TID 0000.0001)  OPEN_COPY_DATA_FILE: opening file data.shap
(PID.TID 0000.0001) // =======================================================
(PID.TID 0000.0001) // Parameter file "data.shap"
(PID.TID 0000.0001) // =======================================================
(PID.TID 0000.0001) ># Shapiro Filter parameters
(PID.TID 0000.0001) > &SHAP_PARM01
(PID.TID 0000.0001) > shap_filt_uvStar=.FALSE.,
(PID.TID 0000.0001) > shap_filt_TrStagg=.TRUE.,
(PID.TID 0000.0001) > Shap_funct=2,
(PID.TID 0000.0001) > nShapT=4,
(PID.TID 0000.0001) > nShapUV=4,
(PID.TID 0000.0001) > nShapTrPhys=4,
(PID.TID 0000.0001) > nShapUVPhys=4,
(PID.TID 0000.0001) >#Shap_TrLength=140000.,
(PID.TID 0000.0001) >#Shap_uvLength=110000.,
(PID.TID 0000.0001) > Shap_uvLength=-1.,
(PID.TID 0000.0001) > Shap_Trtau=5400.,
(PID.TID 0000.0001) > Shap_uvtau=1800.,
(PID.TID 0000.0001) >#Shap_diagFreq=2592000.,
(PID.TID 0000.0001) > /
(PID.TID 0000.0001) 
(PID.TID 0000.0001)  SHAP_FILT_READPARMS: finished reading data.shap
(PID.TID 0000.0001) Shap_funct =   /* select Shapiro filter function */
(PID.TID 0000.0001)                       2
(PID.TID 0000.0001)     ;
(PID.TID 0000.0001) nShapT =   /* power of Shapiro filter for Temperat */
(PID.TID 0000.0001)                       4
(PID.TID 0000.0001)     ;
(PID.TID 0000.0001) nShapS =   /* power of Shapiro filter for Salinity */
(PID.TID 0000.0001)                       4
(PID.TID 0000.0001)     ;
(PID.TID 0000.0001) nShapUV =   /* power of Shapiro filter for momentum */
(PID.TID 0000.0001)                       4
(PID.TID 0000.0001)     ;
(PID.TID 0000.0001) shap_filt_uvStar = /* apply filter before Press. Solver */
(PID.TID 0000.0001)                   F
(PID.TID 0000.0001)     ;
(PID.TID 0000.0001) shap_filt_TrStagg = /* filter T,S before calc PhiHyd (staggerTimeStep) */
(PID.TID 0000.0001)                   T
(PID.TID 0000.0001)     ;
(PID.TID 0000.0001) Shap_alwaysExchUV = /* always exch(U,V)    nShapUV times*/
(PID.TID 0000.0001)                   F
(PID.TID 0000.0001)     ;
(PID.TID 0000.0001) Shap_alwaysExchTr = /* always exch(Tracer) nShapTr times*/
(PID.TID 0000.0001)                   F
(PID.TID 0000.0001)     ;
(PID.TID 0000.0001) nShapTrPhys =   /* power of physical-space filter (Tracer) */
(PID.TID 0000.0001)                       4
(PID.TID 0000.0001)     ;
(PID.TID 0000.0001) nShapUVPhys =   /* power of physical-space filter (Momentum) */
(PID.TID 0000.0001)                       4
(PID.TID 0000.0001)     ;
(PID.TID 0000.0001) Shap_Trtau =   /* time scale of Shapiro filter (Tracer) */
(PID.TID 0000.0001)                 5.400000000000000E+03
(PID.TID 0000.0001)     ;
(PID.TID 0000.0001) Shap_TrLength =   /* Length scale of Shapiro filter (Tracer) */
(PID.TID 0000.0001)                 0.000000000000000E+00
(PID.TID 0000.0001)     ;
(PID.TID 0000.0001) Shap_uvtau =   /* time scale of Shapiro filter (Momentum) */
(PID.TID 0000.0001)                 1.800000000000000E+03
(PID.TID 0000.0001)     ;
(PID.TID 0000.0001) Shap_uvLength =   /* Length scale of Shapiro filter (Momentum) */
(PID.TID 0000.0001)                -1.000000000000000E+00
(PID.TID 0000.0001)     ;
(PID.TID 0000.0001) Shap_noSlip =  /* No-slip parameter (0=Free-slip ; 1=No-slip)*/
(PID.TID 0000.0001)                 0.000000000000000E+00
(PID.TID 0000.0001)     ;
(PID.TID 0000.0001) Shap_diagFreq =   /* Frequency^-1 for diagnostic output (s)*/
(PID.TID 0000.0001)                 0.000000000000000E+00
(PID.TID 0000.0001)     ;
(PID.TID 0000.0001)  THSICE_READPARMS: opening data.ice
(PID.TID 0000.0001)  OPEN_COPY_DATA_FILE: opening file data.ice
(PID.TID 0000.0001) // =======================================================
(PID.TID 0000.0001) // Parameter file "data.ice"
(PID.TID 0000.0001) // =======================================================
(PID.TID 0000.0001) > &THSICE_CONST
(PID.TID 0000.0001) > Tf0kel  = 273.15,
(PID.TID 0000.0001) > rhosw   = 1030.,
(PID.TID 0000.0001) >#- with LANL albedo:
(PID.TID 0000.0001) >#albWarmSnow=0.75,
(PID.TID 0000.0001) >#- for full ice-fraction :
(PID.TID 0000.0001) >#icemaskmin = 1.,
(PID.TID 0000.0001) >#himin0     = 0.01,
(PID.TID 0000.0001) >#frac_energy= 0.,
(PID.TID 0000.0001) >#hihig      =100.,
(PID.TID 0000.0001) >#- with fractional ice:
(PID.TID 0000.0001) > iceMaskmin = 0.01,
(PID.TID 0000.0001) > hThinIce   = 0.1,
(PID.TID 0000.0001) > hiMax      =500.,
(PID.TID 0000.0001) > hsMax      = 10.,
(PID.TID 0000.0001) > albIceMax  =0.70,
(PID.TID 0000.0001) > albIceMin  =0.30,
(PID.TID 0000.0001) > hAlbSnow   =0.05,
(PID.TID 0000.0001) > hAlbIce    =0.25,
(PID.TID 0000.0001) > albColdSnow=0.85,
(PID.TID 0000.0001) > albWarmSnow=0.50,
(PID.TID 0000.0001) > albOldSnow =0.50,
(PID.TID 0000.0001) > tempSnowAlb=-5.0,
(PID.TID 0000.0001) > hNewIceMax = 2.5,
(PID.TID 0000.0001) > /
(PID.TID 0000.0001) >
(PID.TID 0000.0001) > &THSICE_PARM01
(PID.TID 0000.0001) > thSIce_diffK=1000.,
(PID.TID 0000.0001) > thSIceAdvScheme=1,
(PID.TID 0000.0001) >#startIceModel=1,
(PID.TID 0000.0001) >#stepFwd_oceMxL=.TRUE.,
(PID.TID 0000.0001) > ocean_deltaT=3600.,
(PID.TID 0000.0001) >#tauRelax_MxL=5184000.,
(PID.TID 0000.0001) > stressReduction=0.,
(PID.TID 0000.0001) >#thSIce_taveFreq=2592000.,
(PID.TID 0000.0001) > thSIce_diagFreq=259200.,
(PID.TID 0000.0001) >#thSIce_monFreq=864000.,
(PID.TID 0000.0001) ># thSIceFract_InitFile='Drake.c32.I.IceFrc.ini.bin' ,
(PID.TID 0000.0001) ># thSIceThick_InitFile='Drake.c32.I.IceHgt.ini.bin' ,
(PID.TID 0000.0001) ># thSIceSnowH_InitFile='Drake.c32.I.SnowHgt.ini.bin',
(PID.TID 0000.0001) ># thSIceSnowA_InitFile='Drake.c32.I.SnowAge.ini.bin',
(PID.TID 0000.0001) ># thSIceEnthp_InitFile='Drake.c32.I.IceEnth.ini.bin',
(PID.TID 0000.0001) ># thSIceTsurf_InitFile='Drake.c32.I.IceTsrf.ini.bin',
(PID.TID 0000.0001) > /
(PID.TID 0000.0001) 
(PID.TID 0000.0001)  THSICE_READPARMS: read THSICE_CONST
(PID.TID 0000.0001)  THSICE_READPARMS: read THSICE_PARM01
 ThSI:       rhos        =  3.3000000000000E+02
 ThSI:       rhoi        =  9.0000000000000E+02
 ThSI:       rhosw       =  1.0300000000000E+03
 ThSI:       rhofw       =  1.0000000000000E+03
 ThSI:       floodFac    =  3.9393939393939E-01
 ThSI:       cpIce       =  2.1060000000000E+03
 ThSI:       cpWater     =  3.9940000000000E+03
 ThSI:       kIce        =  2.0300000000000E+00
 ThSI:       kSnow       =  3.0000000000000E-01
 ThSI:       bMeltCoef   =  6.0000000000000E-03
 ThSI:       Lfresh      =  3.3400000000000E+05
 ThSI:       qsnow       =  3.3400000000000E+05
 ThSI:       albColdSnow =  8.5000000000000E-01
 ThSI:       albWarmSnow =  5.0000000000000E-01
 ThSI:       tempSnowAlb = -5.0000000000000E+00
 ThSI:       albOldSnow  =  5.0000000000000E-01
 ThSI:       hNewSnowAge =  2.0000000000000E-03
 ThSI:       snowAgTime  =  4.3200000000000E+06
 ThSI:       albIceMax   =  7.0000000000000E-01
 ThSI:       albIceMin   =  3.0000000000000E-01
 ThSI:       hAlbIce     =  2.5000000000000E-01
 ThSI:       hAlbSnow    =  5.0000000000000E-02
 ThSI:       i0swFrac    =  3.0000000000000E-01
 ThSI:       ksolar      =  1.5000000000000E+00
 ThSI:       dhSnowLin   =  0.0000000000000E+00
 ThSI:       saltIce     =  4.0000000000000E+00
 ThSI:       S_winton    =  1.0000000000000E+00
 ThSI:       mu_Tf       =  5.4000000000000E-02
 ThSI:       Tf0kel      =  2.7315000000000E+02
 ThSI:       Tmlt1       = -5.4000000000000E-02
 ThSI:       Terrmax     =  5.0000000000000E-01
 ThSI:       nitMaxTsf   =        20
 ThSI:       hIceMin     =  1.0000000000000E-02
 ThSI:       hiMax       =  5.0000000000000E+02
 ThSI:       hsMax       =  1.0000000000000E+01
 ThSI:       iceMaskMax  =  1.0000000000000E+00
 ThSI:       iceMaskMin  =  1.0000000000000E-02
 ThSI:       fracEnMelt  =  4.0000000000000E-01
 ThSI:       fracEnFreez =  0.0000000000000E+00
 ThSI:       hThinIce    =  1.0000000000000E-01
 ThSI:       hThickIce   =  2.5000000000000E+00
 ThSI:       hNewIceMax  =  2.5000000000000E+00
 ThSI: stressReduction   =  0.0000000000000E+00
 ThSI: thSIce_skipThermo =         F
 ThSI: thSIceAdvScheme   =         1
 ThSI: thSIceBalanceAtmFW=         0
 ThSI: thSIce_diffK      =  1.0000000000000E+03
 ThSI: thSIce_deltaT     =  1.2000000000000E+03
 ThSI: ocean_deltaT      =  3.6000000000000E+03
 ThSI: stepFwd_oceMxL    =         F
 ThSI: tauRelax_MxL      =  0.0000000000000E+00
 ThSI: tauRelax_MxL_salt =  0.0000000000000E+00
 ThSI: hMxL_default      =  5.0000000000000E+01
 ThSI: sMxL_default      =  3.5000000000000E+01
 ThSI: vMxL_default      =  5.0000000000000E-02
 ThSI: thSIce_taveFreq   =  0.0000000000000E+00
 ThSI: thSIce_diagFreq   =  2.5920000000000E+05
 ThSI: thSIce_monFreq    =  1.2000000000000E+03
 ThSI: startIceModel     =         0
(PID.TID 0000.0001)  LAND_READPARMS: opening data.land
(PID.TID 0000.0001)  OPEN_COPY_DATA_FILE: opening file data.land
(PID.TID 0000.0001) // =======================================================
(PID.TID 0000.0001) // Parameter file "data.land"
(PID.TID 0000.0001) // =======================================================
(PID.TID 0000.0001) ># Land package parameters:
(PID.TID 0000.0001) >
(PID.TID 0000.0001) >#--  Land model parameter (namelist LAND_MODEL_PAR):
(PID.TID 0000.0001) >#     land_calc_grT  :: step forward ground Temperature
(PID.TID 0000.0001) >#     land_calc_grW  :: step forward soil moiture
(PID.TID 0000.0001) >#     land_impl_grT  :: solve ground Temperature implicitly
(PID.TID 0000.0001) >#     land_calc_snow :: step forward snow thickness
(PID.TID 0000.0001) >#     land_calc_alb  :: compute albedo of snow over land
(PID.TID 0000.0001) >#     land_oldPickup :: restart from an old pickup (=before checkpoint 52l)
(PID.TID 0000.0001) >#     land_grT_iniFile  :: File containing initial ground Temp.
(PID.TID 0000.0001) >#     land_grW_iniFile  :: File containing initial ground Water.
(PID.TID 0000.0001) >#     land_snow_iniFile :: File containing initial snow thickness.
(PID.TID 0000.0001) >#     land_deltaT   :: land model time-step
(PID.TID 0000.0001) >#     land_taveFreq :: Frequency^-1 for time-Aver. output (s)
(PID.TID 0000.0001) >#     land_diagfreq :: Frequency^-1 for diagnostic output (s)
(PID.TID 0000.0001) >#     land_monFreq  :: Frequency^-1 for monitor    output (s)
(PID.TID 0000.0001) >#     land_dzF      :: layer thickness
(PID.TID 0000.0001) > &LAND_MODEL_PAR
(PID.TID 0000.0001) ># land_calc_grT =.FALSE.,
(PID.TID 0000.0001) ># land_calc_grW =.FALSE.,
(PID.TID 0000.0001) ># land_impl_grT =.FALSE.,
(PID.TID 0000.0001) ># land_calc_snow=.FALSE.,
(PID.TID 0000.0001) ># land_calc_alb =.FALSE.,
(PID.TID 0000.0001) >#  land_grT_iniFile='Drake.c32.L.GrdT.ini.bin',
(PID.TID 0000.0001) >#  land_grW_iniFile='Drake.c32.L.GrdW.ini.bin',
(PID.TID 0000.0001) ># land_snow_iniFile='land_snw_ini.cpl.bin',
(PID.TID 0000.0001) ># land_oldPickup=.TRUE.,
(PID.TID 0000.0001) >  land_dzF= 0.1, 4.0,
(PID.TID 0000.0001) >  land_diagFreq=259200.,
(PID.TID 0000.0001) > /
(PID.TID 0000.0001) >
(PID.TID 0000.0001) >#--  Physical constants (namelist LAND_PHYS_PAR):
(PID.TID 0000.0001) >#     land_grdLambda  :: Thermal conductivity of the ground (W/m/K)
(PID.TID 0000.0001) >#     land_heatCs     :: Heat capacity of dry soil (J/m3/K)
(PID.TID 0000.0001) >#     land_CpWater    :: Heat capacity of water    (J/kg/K)
(PID.TID 0000.0001) >#     land_wTauDiff   :: soil moisture diffusion time scale
(PID.TID 0000.0001) >#     land_waterCap   :: field capacity per meter of soil
(PID.TID 0000.0001) >#     land_fractRunOff:: fraction of water in excess which run-off
(PID.TID 0000.0001) >#     land_rhoLiqW    :: density of liquid water (kg/m3)
(PID.TID 0000.0001) >#     land_rhoSnow    :: density of snow (kg/m3)
(PID.TID 0000.0001) >#     land_Lfreez     :: Latent heat of freezing (J/kg)
(PID.TID 0000.0001) >#     land_hMaxSnow   :: Maximum snow-thickness  (m)
(PID.TID 0000.0001) >#     diffKsnow       :: thermal conductivity of snow (W/m/K)
(PID.TID 0000.0001) >#     timeSnowAge     :: snow aging time scale   (s)
(PID.TID 0000.0001) >#     hNewSnowAge     :: new snow thickness that refresh the snow-age (by 1/e)
(PID.TID 0000.0001) >#     albColdSnow     :: albedo of cold (=dry) new snow (Tsfc < -10)
(PID.TID 0000.0001) >#     albWarmSnow     :: albedo of warm (=wet) new snow (Tsfc = 0)
(PID.TID 0000.0001) >#     albOldSnow      :: albedo of old snow (snowAge > 35.d)
(PID.TID 0000.0001) >#     hAlbSnow        :: snow thickness for albedo transition: snow/ground
(PID.TID 0000.0001) > &LAND_PHYS_PAR
(PID.TID 0000.0001) ># land_Lfreez=0.,
(PID.TID 0000.0001) >  land_hMaxSnow=10.,
(PID.TID 0000.0001) >  hAlbSnow     =0.05,
(PID.TID 0000.0001) >  albColdSnow  =0.80,
(PID.TID 0000.0001) >  albWarmSnow  =0.45,
(PID.TID 0000.0001) >  albOldSnow   =0.45,
(PID.TID 0000.0001) >  tempSnowAlbL =-5.0,
(PID.TID 0000.0001) > /
(PID.TID 0000.0001) 
(PID.TID 0000.0001)  LAND_READPARMS: finished reading data.land
(PID.TID 0000.0001)  DIAGNOSTICS_READPARMS: opening data.diagnostics
(PID.TID 0000.0001)  OPEN_COPY_DATA_FILE: opening file data.diagnostics
(PID.TID 0000.0001) // =======================================================
(PID.TID 0000.0001) // Parameter file "data.diagnostics"
(PID.TID 0000.0001) // =======================================================
(PID.TID 0000.0001) ># Diagnostic Package Choices
(PID.TID 0000.0001) >#-----------------
(PID.TID 0000.0001) ># for each output-stream:
(PID.TID 0000.0001) >#  filename(n) : prefix of the output file name (only 8.c long) for outp.stream n
(PID.TID 0000.0001) >#  frequency(n):< 0 : write snap-shot output every |frequency| seconds
(PID.TID 0000.0001) >#               > 0 : write time-average output every frequency seconds
(PID.TID 0000.0001) >#  timePhase(n)     : write at time = timePhase + multiple of |frequency|
(PID.TID 0000.0001) >#  levels(:,n) : list of levels to write to file (Notes: declared as REAL)
(PID.TID 0000.0001) >#                 when this entry is missing, select all common levels of this list
(PID.TID 0000.0001) >#  fields(:,n) : list of diagnostics fields (8.c) (see "available_diagnostics" file
(PID.TID 0000.0001) >#                 for the list of all available diag. in this particular config)
(PID.TID 0000.0001) >#-----------------
(PID.TID 0000.0001) > &diagnostics_list
(PID.TID 0000.0001) >
(PID.TID 0000.0001) >  frequency(1) = 31104000.,
(PID.TID 0000.0001) >  frequency(1) = 1555200000.,
(PID.TID 0000.0001) >#  filename(1) = 'DiagAtmEta',
(PID.TID 0000.0001) >   fields(1,1) = 'ETAN    ','ETANSQ  ',
(PID.TID 0000.0001) >
(PID.TID 0000.0001) >  frequency(2) = 31104000.,
(PID.TID 0000.0001) >  frequency(2) = 1555200000.,
(PID.TID 0000.0001) >#  filename(2) = 'DiagAtmTave',
(PID.TID 0000.0001) >   fields(1,2) = 'UVEL    ','VVEL    ','WVEL    ','THETA   ',
(PID.TID 0000.0001) >                 'SALT    ','UVELTH  ','VVELTH  ','WVELTH  ',
(PID.TID 0000.0001) >                 'UVELSLT ','VVELSLT ','WVELSLT ','PHIHYD  ',
(PID.TID 0000.0001) >                 'UVELSQ  ','VVELSQ  ','UV_VEL_C','THETASQ ',
(PID.TID 0000.0001) >
(PID.TID 0000.0001) >  frequency(3) = 31104000.,
(PID.TID 0000.0001) >  frequency(3) = 1555200000.,
(PID.TID 0000.0001) >#  filename(3) = 'DiagAtmExtra',
(PID.TID 0000.0001) >   fields(1,3) = 'UVELMASS','VVELMASS','UTHMASS ','VTHMASS ',
(PID.TID 0000.0001) >                 'USLTMASS','VSLTMASS','UVELPHI ','VVELPHI ',
(PID.TID 0000.0001) >                 'momKE   ','DIABT   ','DIABQ   ','RELHUM  ',
(PID.TID 0000.0001) >                 'SHAP_dKE','CLDCLW  ',
(PID.TID 0000.0001) >
(PID.TID 0000.0001) >  frequency(4) = 31104000.,
(PID.TID 0000.0001) >  frequency(4) = 1555200000.,
(PID.TID 0000.0001) >#  filename(4) = 'DiagAim',
(PID.TID 0000.0001) >   fields(1,4) = 'UFLUX   ','VFLUX   ','TSR     ','OLR     ',
(PID.TID 0000.0001) >                 'RADSWG  ','RADLWG  ','HFLUX   ','EVAP    ',
(PID.TID 0000.0001) >                 'PRECON  ','PRECLS  ','CLDFRC  ','CLDPRS  ',
(PID.TID 0000.0001) >                 'CLDMAS  ','DRAG    ','WINDS   ','TS      ',
(PID.TID 0000.0001) >                 'QS      ','ENPREC  ','ALBVISDF','DTSIMPL ',
(PID.TID 0000.0001) >                 'dKE_Ustr','dKE_Vstr',
(PID.TID 0000.0001) >
(PID.TID 0000.0001) >  frequency(5) = 2592000.,
(PID.TID 0000.0001) >  frequency(5) = 31104000.,
(PID.TID 0000.0001) >  frequency(5) = 1555200000.,
(PID.TID 0000.0001) >#  filename(5) = 'DiagIce',
(PID.TID 0000.0001) >   fields(1,5) = 'SI_Fract','SI_Thick','SI_SnowH','SI_Tsrf ',
(PID.TID 0000.0001) >                 'SI_Tice1','SI_Tice2','SI_Qice1','SI_Qice2',
(PID.TID 0000.0001) >                 'SIalbedo','SIsnwAge','SIsnwPrc','SIflx2oc',
(PID.TID 0000.0001) >                 'SIfrw2oc','ADVxSIfr','ADVySIfr','ADVxSIhs',
(PID.TID 0000.0001) >                 'ADVySIhs','ADVxSIhi','ADVySIhi','ADVxSIq1',
(PID.TID 0000.0001) >                 'ADVySIq1','ADVxSIq2','ADVySIq2',
(PID.TID 0000.0001) >
(PID.TID 0000.0001) >  frequency(6) =-31104000.,
(PID.TID 0000.0001) >  frequency(6) =-1555200000.,
(PID.TID 0000.0001) >  timePhase(6) = 0.,
(PID.TID 0000.0001) >#  filename(6) = 'DiagAtmEtai',
(PID.TID 0000.0001) >   fields(1,6) = 'RSURF   ',
(PID.TID 0000.0001) >
(PID.TID 0000.0001) >  frequency(7) =-31104000.,
(PID.TID 0000.0001) >  frequency(7) =-1555200000.,
(PID.TID 0000.0001) >  timePhase(7) = 0.,
(PID.TID 0000.0001) >#  filename(7) = 'DiagAtmTHi',
(PID.TID 0000.0001) >   fields(1,7) = 'THETA   ',
(PID.TID 0000.0001) >
(PID.TID 0000.0001) >  frequency(8) = 31104000.,
(PID.TID 0000.0001) >  frequency(8) = 1555200000.,
(PID.TID 0000.0001) >#  filename(8) = 'DiagLand3d',
(PID.TID 0000.0001) >   fields(1,8) = 'GrdTemp ','GrdEnth ','GrdWater',
(PID.TID 0000.0001) >
(PID.TID 0000.0001) >  frequency(9) = 31104000.,
(PID.TID 0000.0001) >  frequency(9) = 1555200000.,
(PID.TID 0000.0001) >#  filename(9) = 'DiagLand2d',
(PID.TID 0000.0001) >   fields(1,9) = 'GrdSurfT','LdSnowH ','LdSnwAge','RUNOFF  ',
(PID.TID 0000.0001) >                 'EnRunOff','landHFlx','landPmE ','ldEnFxPr',
(PID.TID 0000.0001) >
(PID.TID 0000.0001) ># frequency(10)=-86400.,
(PID.TID 0000.0001) >#  filename(10)= 'DiagAtmPSI',
(PID.TID 0000.0001) >#  fields(1,10)= 'UVELMASS','VVELMASS','THETA   ','SALT    ',
(PID.TID 0000.0001) >#                'PHIHYD  ',
(PID.TID 0000.0001) > /
(PID.TID 0000.0001) >
(PID.TID 0000.0001) > &DIAG_STATIS_PARMS
(PID.TID 0000.0001) > stat_fields(1:8,1)  = 'SI_Fract','SI_Thick','aim_pCO2','CPL_fCO2',
(PID.TID 0000.0001) >                       'CPL_MxlD','CPL_SST ','CPL_SSS ','CPL_Vel2',
(PID.TID 0000.0001) ># stat_fname(1) = 'pCO2StDiag',
(PID.TID 0000.0001) >#  stat_freq(1) = -259200.,
(PID.TID 0000.0001) >  stat_fname(1) = 'cplStDiag',
(PID.TID 0000.0001) >   stat_freq(1) = -3600.,
(PID.TID 0000.0001) >  stat_phase(1) = 0.,
(PID.TID 0000.0001) > /
(PID.TID 0000.0001) >
(PID.TID 0000.0001) 
(PID.TID 0000.0001) S/R DIAGNOSTICS_READPARMS, read namelist "diagnostics_list": start
(PID.TID 0000.0001) S/R DIAGNOSTICS_READPARMS, read namelist "diagnostics_list": OK
(PID.TID 0000.0001) S/R DIAGNOSTICS_READPARMS, read namelist "DIAG_STATIS_PARMS": start
(PID.TID 0000.0001) S/R DIAGNOSTICS_READPARMS, read namelist "DIAG_STATIS_PARMS": OK
(PID.TID 0000.0001)  DIAGNOSTICS_READPARMS: global parameter summary:
(PID.TID 0000.0001)  dumpAtLast = /* always write time-ave diags at the end */
(PID.TID 0000.0001)                   F
(PID.TID 0000.0001)     ;
(PID.TID 0000.0001)  diag_mnc =   /* write NetCDF output files */
(PID.TID 0000.0001)                   F
(PID.TID 0000.0001)     ;
(PID.TID 0000.0001)  useMissingValue = /* put MissingValue where mask = 0 */
(PID.TID 0000.0001)                   F
(PID.TID 0000.0001)     ;
(PID.TID 0000.0001)  diagCG_maxIters = /* max number of iters in diag_cg2d */
(PID.TID 0000.0001)                     200
(PID.TID 0000.0001)     ;
(PID.TID 0000.0001)  diagCG_resTarget = /* residual target for diag_cg2d */
(PID.TID 0000.0001)                 1.000000000000000E-07
(PID.TID 0000.0001)     ;
(PID.TID 0000.0001)  diagCG_pcOffDFac = /* preconditioner off-diagonal factor */
(PID.TID 0000.0001)                 9.611687812379854E-01
(PID.TID 0000.0001)     ;
(PID.TID 0000.0001) -----------------------------------------------------
(PID.TID 0000.0001)  DIAGNOSTICS_READPARMS: active diagnostics summary:
(PID.TID 0000.0001) -----------------------------------------------------
(PID.TID 0000.0001) -----------------------------------------------------
(PID.TID 0000.0001)  DIAGNOSTICS_READPARMS: statistics diags. summary:
(PID.TID 0000.0001) Creating Stats. Output Stream: cplStDiag
(PID.TID 0000.0001) Output Frequency:      -3600.000000 ; Phase:           0.000000
(PID.TID 0000.0001)  Regions:   0
(PID.TID 0000.0001)  Fields:    SI_Fract SI_Thick aim_pCO2 CPL_fCO2 CPL_MxlD CPL_SST  CPL_SSS  CPL_Vel2
(PID.TID 0000.0001) -----------------------------------------------------
(PID.TID 0000.0001) 
(PID.TID 0000.0001)  CPL_READPARMS: opening data.cpl
(PID.TID 0000.0001)  OPEN_COPY_DATA_FILE: opening file data.cpl
(PID.TID 0000.0001) // =======================================================
(PID.TID 0000.0001) // Parameter file "data.cpl"
(PID.TID 0000.0001) // =======================================================
(PID.TID 0000.0001) ># Coupling package parameters, ATM component:
(PID.TID 0000.0001) >#    cpl_oldPickup   :: restart from an old pickup (= until ckpt 59h)
(PID.TID 0000.0001) >#    useImportMxlD   :: True => use Imported Mix.Layer Detph from coupler
(PID.TID 0000.0001) >#    useImportSST    :: True => use the Imported SST from coupler
(PID.TID 0000.0001) >#    useImportSSS    :: True => use the Imported SSS from coupler
(PID.TID 0000.0001) >#    useImportVsq    :: True => use the Imported Surf. velocity^2
(PID.TID 0000.0001) >#    useImportThSIce :: True => use the Imported thSIce state var from coupler
(PID.TID 0000.0001) >#    useImportFlxCO2 :: True => use the Imported air-sea CO2 flux from coupler
(PID.TID 0000.0001) >#    cpl_atmSendFrq  :: Frequency^-1 for sending data to coupler (s)
(PID.TID 0000.0001) >#    maxNumberPrint  :: max number of printed Exp/Imp messages
(PID.TID 0000.0001) > &CPL_ATM_PARAM
(PID.TID 0000.0001) ># cpl_oldPickup  =.TRUE.,
(PID.TID 0000.0001) ># useImportMxlD  =.FALSE.,
(PID.TID 0000.0001) ># useImportSST   =.FALSE.,
(PID.TID 0000.0001) ># useImportSSS   =.FALSE.,
(PID.TID 0000.0001) ># useImportVsq   =.FALSE.,
(PID.TID 0000.0001) ># useImportThSIce=.FALSE.,
(PID.TID 0000.0001) ># useImportFlxCO2=.FALSE.,
(PID.TID 0000.0001) >  cpl_atmSendFrq = 3600.,
(PID.TID 0000.0001) > /
(PID.TID 0000.0001) 
(PID.TID 0000.0001)  CPL_READPARMS: finished reading data.cpl
(PID.TID 0000.0001) 
(PID.TID 0000.0001) // ===================================
(PID.TID 0000.0001) // Coupling set-up summary :
(PID.TID 0000.0001) // ===================================
(PID.TID 0000.0001) // -------
(PID.TID 0000.0001) // Coupler-exchange switch (received from coupler):
(PID.TID 0000.0001) atm_cplSequential = /* use Sequential Coupling Exchange on/off flag */
(PID.TID 0000.0001)                   F
(PID.TID 0000.0001)     ;
(PID.TID 0000.0001) atm_cplExch_RunOff = /* exchange RunOff fields with coupler on/off */
(PID.TID 0000.0001)                   T
(PID.TID 0000.0001)     ;
(PID.TID 0000.0001) atm_cplExch1W_sIce = /* 1-way exchange of seaice vars with coupler */
(PID.TID 0000.0001)                   T
(PID.TID 0000.0001)     ;
(PID.TID 0000.0001) atm_cplExch2W_sIce = /* 2-way exchange of ThSIce vars with coupler */
(PID.TID 0000.0001)                   F
(PID.TID 0000.0001)     ;
(PID.TID 0000.0001) atm_cplExch_SaltPl = /* exchange Salt-Plume fields with coupler */
(PID.TID 0000.0001)                   F
(PID.TID 0000.0001)     ;
(PID.TID 0000.0001) atm_cplExch_DIC    = /* exchange DIC    fields with coupler on/off */
(PID.TID 0000.0001)                   T
(PID.TID 0000.0001)     ;
(PID.TID 0000.0001) // -------
(PID.TID 0000.0001) // Coupler parameters (from local param file):
(PID.TID 0000.0001) cpl_oldPickup = /* restart from old pickup on/off flag */
(PID.TID 0000.0001)                   F
(PID.TID 0000.0001)     ;
(PID.TID 0000.0001) useImportMxlD = /* use Imported MxL. Depth from Coupler flag */
(PID.TID 0000.0001)                   T
(PID.TID 0000.0001)     ;
(PID.TID 0000.0001) useImportSST  = /* use Imported SST from Coupler on/off flag */
(PID.TID 0000.0001)                   T
(PID.TID 0000.0001)     ;
(PID.TID 0000.0001) useImportSSS  = /* use Imported SSS from Coupler on/off flag */
(PID.TID 0000.0001)                   T
(PID.TID 0000.0001)     ;
(PID.TID 0000.0001) useImportVsq  = /* use Imported surf.Vel^2 from Coupler flag */
(PID.TID 0000.0001)                   T
(PID.TID 0000.0001)     ;
(PID.TID 0000.0001) useImportThSIce= /* use Imported thSIce state-var fr Cpl. flag */
(PID.TID 0000.0001)                   F
(PID.TID 0000.0001)     ;
(PID.TID 0000.0001) useImportFlxCO2= /* use Imported air-sea CO2 flux fr Cpl.  flag */
(PID.TID 0000.0001)                   T
(PID.TID 0000.0001)     ;
(PID.TID 0000.0001) cpl_atmSendFrq = /* Frequency^o-1 for sending data to Coupler (s) */
(PID.TID 0000.0001)                 3.600000000000000E+03
(PID.TID 0000.0001)     ;
(PID.TID 0000.0001) cplSendFrq_iter = /* send data to coupler every "cplSendFrq" iter */
(PID.TID 0000.0001)                       3
(PID.TID 0000.0001)     ;
(PID.TID 0000.0001) maxNumberPrint = /* max number of printed Exp/Imp messages */
(PID.TID 0000.0001)                     100
(PID.TID 0000.0001)     ;
(PID.TID 0000.0001) // ===================================
(PID.TID 0000.0001) // End of Coupling set-up summary
(PID.TID 0000.0001) // ===================================
(PID.TID 0000.0001) SET_PARMS: done
(PID.TID 0000.0001) Enter INI_VERTICAL_GRID: setInterFDr=    T ; setCenterDr=    F
(PID.TID 0000.0001) tile:   1 ; Read from file grid_cs24.face001.bin
(PID.TID 0000.0001)   => xC yC dxF dyF rA xG yG dxV dyU rAz dxC dyC rAw rAs dxG dyG AngleCS AngleSN
(PID.TID 0000.0001) tile:   2 ; Read from file grid_cs24.face002.bin
(PID.TID 0000.0001)   => xC yC dxF dyF rA xG yG dxV dyU rAz dxC dyC rAw rAs dxG dyG AngleCS AngleSN
(PID.TID 0000.0001) tile:   3 ; Read from file grid_cs24.face003.bin
(PID.TID 0000.0001)   => xC yC dxF dyF rA xG yG dxV dyU rAz dxC dyC rAw rAs dxG dyG AngleCS AngleSN
(PID.TID 0000.0001) tile:   4 ; Read from file grid_cs24.face004.bin
(PID.TID 0000.0001)   => xC yC dxF dyF rA xG yG dxV dyU rAz dxC dyC rAw rAs dxG dyG AngleCS AngleSN
(PID.TID 0000.0001) tile:   5 ; Read from file grid_cs24.face005.bin
(PID.TID 0000.0001)   => xC yC dxF dyF rA xG yG dxV dyU rAz dxC dyC rAw rAs dxG dyG AngleCS AngleSN
(PID.TID 0000.0001) tile:   6 ; Read from file grid_cs24.face006.bin
(PID.TID 0000.0001)   => xC yC dxF dyF rA xG yG dxV dyU rAz dxC dyC rAw rAs dxG dyG AngleCS AngleSN
(PID.TID 0000.0001) %MON XC_max                       =   1.7805765197394E+02
(PID.TID 0000.0001) %MON XC_min                       =  -1.7805765197394E+02
(PID.TID 0000.0001) %MON XC_mean                      =   1.6201032285271E-15
(PID.TID 0000.0001) %MON XC_sd                        =   1.0354458820627E+02
(PID.TID 0000.0001) %MON XG_max                       =   1.8000000000000E+02
(PID.TID 0000.0001) %MON XG_min                       =  -1.8000000000000E+02
(PID.TID 0000.0001) %MON XG_mean                      =  -1.1979166666666E+00
(PID.TID 0000.0001) %MON XG_sd                        =   1.0358013763898E+02
(PID.TID 0000.0001) %MON DXC_max                      =   4.3164275177360E+05
(PID.TID 0000.0001) %MON DXC_min                      =   1.5544064368070E+05
(PID.TID 0000.0001) %MON DXC_mean                     =   3.8137729468492E+05
(PID.TID 0000.0001) %MON DXC_sd                       =   4.5648204906727E+04
(PID.TID 0000.0001) %MON DXF_max                      =   4.3152108368226E+05
(PID.TID 0000.0001) %MON DXF_min                      =   1.7306052594037E+05
(PID.TID 0000.0001) %MON DXF_mean                     =   3.8137729468493E+05
(PID.TID 0000.0001) %MON DXF_sd                       =   4.5633006600253E+04
(PID.TID 0000.0001) %MON DXG_max                      =   4.3164334211044E+05
(PID.TID 0000.0001) %MON DXG_min                      =   1.4518254737938E+05
(PID.TID 0000.0001) %MON DXG_mean                     =   3.8133829104970E+05
(PID.TID 0000.0001) %MON DXG_sd                       =   4.5841416808576E+04
(PID.TID 0000.0001) %MON DXV_max                      =   4.3176524634847E+05
(PID.TID 0000.0001) %MON DXV_min                      =   1.0732343304956E+05
(PID.TID 0000.0001) %MON DXV_mean                     =   3.8133829104970E+05
(PID.TID 0000.0001) %MON DXV_sd                       =   4.5891068189112E+04
(PID.TID 0000.0001) %MON YC_max                       =   8.7254156388165E+01
(PID.TID 0000.0001) %MON YC_min                       =  -8.7254156388165E+01
(PID.TID 0000.0001) %MON YC_mean                      =   0.0000000000000E+00
(PID.TID 0000.0001) %MON YC_sd                        =   3.8673963661903E+01
(PID.TID 0000.0001) %MON YG_max                       =   9.0000000000000E+01
(PID.TID 0000.0001) %MON YG_min                       =  -9.0000000000000E+01
(PID.TID 0000.0001) %MON YG_mean                      =  -2.1053118096596E-15
(PID.TID 0000.0001) %MON YG_sd                        =   3.8675518589166E+01
(PID.TID 0000.0001) %MON DYC_max                      =   4.3164275177360E+05
(PID.TID 0000.0001) %MON DYC_min                      =   1.5544064368070E+05
(PID.TID 0000.0001) %MON DYC_mean                     =   3.8137729468492E+05
(PID.TID 0000.0001) %MON DYC_sd                       =   4.5648204906727E+04
(PID.TID 0000.0001) %MON DYF_max                      =   4.3152108368226E+05
(PID.TID 0000.0001) %MON DYF_min                      =   1.7306052594037E+05
(PID.TID 0000.0001) %MON DYF_mean                     =   3.8137729468493E+05
(PID.TID 0000.0001) %MON DYF_sd                       =   4.5633006600253E+04
(PID.TID 0000.0001) %MON DYG_max                      =   4.3164334211044E+05
(PID.TID 0000.0001) %MON DYG_min                      =   1.4518254737938E+05
(PID.TID 0000.0001) %MON DYG_mean                     =   3.8133829104970E+05
(PID.TID 0000.0001) %MON DYG_sd                       =   4.5841416808576E+04
(PID.TID 0000.0001) %MON DYU_max                      =   4.3176524634847E+05
(PID.TID 0000.0001) %MON DYU_min                      =   1.0732343304956E+05
(PID.TID 0000.0001) %MON DYU_mean                     =   3.8133829104970E+05
(PID.TID 0000.0001) %MON DYU_sd                       =   4.5891068189112E+04
(PID.TID 0000.0001) %MON RA_max                       =   1.8619372633388E+11
(PID.TID 0000.0001) %MON RA_min                       =   3.0523839741978E+10
(PID.TID 0000.0001) %MON RA_mean                      =   1.4755629312072E+11
(PID.TID 0000.0001) %MON RA_sd                        =   3.1208553587323E+10
(PID.TID 0000.0001) %MON RAW_max                      =   1.8629895842792E+11
(PID.TID 0000.0001) %MON RAW_min                      =   2.4599873215797E+10
(PID.TID 0000.0001) %MON RAW_mean                     =   1.4755629312072E+11
(PID.TID 0000.0001) %MON RAW_sd                       =   3.1210746169063E+10
(PID.TID 0000.0001) %MON RAS_max                      =   1.8629895842790E+11
(PID.TID 0000.0001) %MON RAS_min                      =   2.4599873215869E+10
(PID.TID 0000.0001) %MON RAS_mean                     =   1.4755629312072E+11
(PID.TID 0000.0001) %MON RAS_sd                       =   3.1210746169063E+10
(PID.TID 0000.0001) %MON RAZ_max                      =   1.8640401341433E+11
(PID.TID 0000.0001) %MON RAZ_min                      =   1.2426043242969E+10
(PID.TID 0000.0001) %MON RAZ_mean                     =   1.4754910212347E+11
(PID.TID 0000.0001) %MON RAZ_sd                       =   3.1243987777370E+10
(PID.TID 0000.0001) %MON AngleCS_max                  =   9.9999984025151E-01
(PID.TID 0000.0001) %MON AngleCS_min                  =  -9.9941231489034E-01
(PID.TID 0000.0001) %MON AngleCS_mean                 =   3.3079633569748E-01
(PID.TID 0000.0001) %MON AngleCS_sd                   =   6.2495902608821E-01
(PID.TID 0000.0001) %MON AngleSN_max                  =   9.9941231489034E-01
(PID.TID 0000.0001) %MON AngleSN_min                  =  -9.9999984025151E-01
(PID.TID 0000.0001) %MON AngleSN_mean                 =  -3.3079633569748E-01
(PID.TID 0000.0001) %MON AngleSN_sd                   =   6.2495902608821E-01
(PID.TID 0000.0001) 
(PID.TID 0000.0001) SET_REF_STATE: PhiRef/g [m] at level Center (integer)
(PID.TID 0000.0001)                      and at level Interface (half-int.) :
(PID.TID 0000.0001)  K=  0.5  ;  r=       100000.0  ;  phiRef/g=        0.000
(PID.TID 0000.0001)  K=  1.0  ;  r=        95000.0  ;  phiRef/g=      431.199
(PID.TID 0000.0001)  K=  1.5  ;  r=        90000.0  ;  phiRef/g=     1256.487
(PID.TID 0000.0001)  K=  2.0  ;  r=        77500.0  ;  phiRef/g=     2105.998
(PID.TID 0000.0001)  K=  2.5  ;  r=        65000.0  ;  phiRef/g=     3775.246
(PID.TID 0000.0001)  K=  3.0  ;  r=        50000.0  ;  phiRef/g=     5536.327
(PID.TID 0000.0001)  K=  3.5  ;  r=        35000.0  ;  phiRef/g=     7908.298
(PID.TID 0000.0001)  K=  4.0  ;  r=        25000.0  ;  phiRef/g=    10440.915
(PID.TID 0000.0001)  K=  4.5  ;  r=        15000.0  ;  phiRef/g=    13806.721
(PID.TID 0000.0001)  K=  5.0  ;  r=         7500.0  ;  phiRef/g=    18190.889
(PID.TID 0000.0001)  K=  5.5  ;  r=            0.0  ;  phiRef/g=    39547.504
(PID.TID 0000.0001) // =======================================================
(PID.TID 0000.0001) // Field Model R_low (ini_masks_etc)
(PID.TID 0000.0001) // CMIN =          1.000000000000000E+32
(PID.TID 0000.0001) // CMAX =         -1.000000000000000E+32
(PID.TID 0000.0001) // CINT =          0.000000000000000E+00
(PID.TID 0000.0001) // SYMBOLS (CMIN->CMAX): -abcdefghijklmnopqrstuvwxyz+
(PID.TID 0000.0001) //                  0.0: .
(PID.TID 0000.0001) // RANGE I (Lo:Hi:Step):(    -1:   146:     1)
(PID.TID 0000.0001) // RANGE J (Lo:Hi:Step):(    26:    -1:    -1)
(PID.TID 0000.0001) // RANGE K (Lo:Hi:Step):(   1:   1:   1)
(PID.TID 0000.0001) // =======================================================
(PID.TID 0000.0001) // =======================================================
(PID.TID 0000.0001) // END OF FIELD                                          =
(PID.TID 0000.0001) // =======================================================
(PID.TID 0000.0001) 
(PID.TID 0000.0001) // =======================================================
(PID.TID 0000.0001) // Field Model Ro_surf (ini_masks_etc)
(PID.TID 0000.0001) // CMIN =          1.000000000000000E+05
(PID.TID 0000.0001) // CMAX =          1.000000000000000E+05
(PID.TID 0000.0001) // CINT =          0.000000000000000E+00
(PID.TID 0000.0001) // SYMBOLS (CMIN->CMAX): -abcdefghijklmnopqrstuvwxyz+
(PID.TID 0000.0001) //                  0.0: .
(PID.TID 0000.0001) // RANGE I (Lo:Hi:Step):(    -1:   146:     1)
(PID.TID 0000.0001) // RANGE J (Lo:Hi:Step):(    26:    -1:    -1)
(PID.TID 0000.0001) // RANGE K (Lo:Hi:Step):(   1:   1:   1)
(PID.TID 0000.0001) // =======================================================
(PID.TID 0000.0001) // =======================================================
(PID.TID 0000.0001) // END OF FIELD                                          =
(PID.TID 0000.0001) // =======================================================
(PID.TID 0000.0001) 
(PID.TID 0000.0001) // =======================================================
(PID.TID 0000.0001) // Field hFacC at iteration          0
(PID.TID 0000.0001) // CMIN =          1.000000000000000E+00
(PID.TID 0000.0001) // CMAX =          1.000000000000000E+00
(PID.TID 0000.0001) // CINT =          0.000000000000000E+00
(PID.TID 0000.0001) // SYMBOLS (CMIN->CMAX): -abcdefghijklmnopqrstuvwxyz+
(PID.TID 0000.0001) //                  0.0: .
(PID.TID 0000.0001) // RANGE I (Lo:Hi:Step):(    -1:   146:     1)
(PID.TID 0000.0001) // RANGE J (Lo:Hi:Step):(    26:    -1:    -1)
(PID.TID 0000.0001) // RANGE K (Lo:Hi:Step):(   1:   1:   1)
(PID.TID 0000.0001) // =======================================================
(PID.TID 0000.0001) // =======================================================
(PID.TID 0000.0001) // END OF FIELD                                          =
(PID.TID 0000.0001) // =======================================================
(PID.TID 0000.0001) 
(PID.TID 0000.0001) // =======================================================
(PID.TID 0000.0001) // Field hFacW at iteration          0
(PID.TID 0000.0001) // CMIN =          1.000000000000000E+00
(PID.TID 0000.0001) // CMAX =          1.000000000000000E+00
(PID.TID 0000.0001) // CINT =          0.000000000000000E+00
(PID.TID 0000.0001) // SYMBOLS (CMIN->CMAX): -abcdefghijklmnopqrstuvwxyz+
(PID.TID 0000.0001) //                  0.0: .
(PID.TID 0000.0001) // RANGE I (Lo:Hi:Step):(    -1:   146:     1)
(PID.TID 0000.0001) // RANGE J (Lo:Hi:Step):(    26:    -1:    -1)
(PID.TID 0000.0001) // RANGE K (Lo:Hi:Step):(   1:   1:   1)
(PID.TID 0000.0001) // =======================================================
(PID.TID 0000.0001) // =======================================================
(PID.TID 0000.0001) // END OF FIELD                                          =
(PID.TID 0000.0001) // =======================================================
(PID.TID 0000.0001) 
(PID.TID 0000.0001) // =======================================================
(PID.TID 0000.0001) // Field hFacS at iteration          0
(PID.TID 0000.0001) // CMIN =          1.000000000000000E+00
(PID.TID 0000.0001) // CMAX =          1.000000000000000E+00
(PID.TID 0000.0001) // CINT =          0.000000000000000E+00
(PID.TID 0000.0001) // SYMBOLS (CMIN->CMAX): -abcdefghijklmnopqrstuvwxyz+
(PID.TID 0000.0001) //                  0.0: .
(PID.TID 0000.0001) // RANGE I (Lo:Hi:Step):(    -1:   146:     1)
(PID.TID 0000.0001) // RANGE J (Lo:Hi:Step):(    26:    -1:    -1)
(PID.TID 0000.0001) // RANGE K (Lo:Hi:Step):(   1:   1:   1)
(PID.TID 0000.0001) // =======================================================
(PID.TID 0000.0001) // =======================================================
(PID.TID 0000.0001) // END OF FIELD                                          =
(PID.TID 0000.0001) // =======================================================
(PID.TID 0000.0001) 
(PID.TID 0000.0001) GAD_INIT_FIXED: GAD_OlMinSize=  1  0  1
(PID.TID 0000.0001) 
(PID.TID 0000.0001) // ===================================
(PID.TID 0000.0001) // GAD parameters :
(PID.TID 0000.0001) // ===================================
(PID.TID 0000.0001) tempAdvScheme =   /* Temp. Horiz.Advection scheme selector */
(PID.TID 0000.0001)                       2
(PID.TID 0000.0001)     ;
(PID.TID 0000.0001) tempVertAdvScheme =   /* Temp. Vert. Advection scheme selector */
(PID.TID 0000.0001)                       2
(PID.TID 0000.0001)     ;
(PID.TID 0000.0001) tempMultiDimAdvec =   /* use Muti-Dim Advec method for Temp */
(PID.TID 0000.0001)                   F
(PID.TID 0000.0001)     ;
(PID.TID 0000.0001) tempSOM_Advection = /* use 2nd Order Moment Advection for Temp */
(PID.TID 0000.0001)                   F
(PID.TID 0000.0001)     ;
(PID.TID 0000.0001) AdamsBashforthGt = /* apply Adams-Bashforth extrapolation on Gt */
(PID.TID 0000.0001)                   F
(PID.TID 0000.0001)     ;
(PID.TID 0000.0001) AdamsBashforth_T = /* apply Adams-Bashforth extrapolation on Temp */
(PID.TID 0000.0001)                   T
(PID.TID 0000.0001)     ;
(PID.TID 0000.0001) saltAdvScheme =   /* Salt. Horiz.advection scheme selector */
(PID.TID 0000.0001)                       2
(PID.TID 0000.0001)     ;
(PID.TID 0000.0001) saltVertAdvScheme =   /* Salt. Vert. Advection scheme selector */
(PID.TID 0000.0001)                       2
(PID.TID 0000.0001)     ;
(PID.TID 0000.0001) saltMultiDimAdvec =   /* use Muti-Dim Advec method for Salt */
(PID.TID 0000.0001)                   F
(PID.TID 0000.0001)     ;
(PID.TID 0000.0001) saltSOM_Advection = /* use 2nd Order Moment Advection for Salt */
(PID.TID 0000.0001)                   F
(PID.TID 0000.0001)     ;
(PID.TID 0000.0001) AdamsBashforthGs = /* apply Adams-Bashforth extrapolation on Gs */
(PID.TID 0000.0001)                   F
(PID.TID 0000.0001)     ;
(PID.TID 0000.0001) AdamsBashforth_S = /* apply Adams-Bashforth extrapolation on Salt */
(PID.TID 0000.0001)                   T
(PID.TID 0000.0001)     ;
(PID.TID 0000.0001) // ===================================
- INPHYS: k,SIG, SIGH,   SIGL,   WVI(1),  WVI(2):
  1   0.0750   0.1500  -2.5903   0.8306   0.5757
  2   0.2500   0.3500  -1.3863   1.4427   0.4854
  3   0.5000   0.6500  -0.6931   2.2818   0.5987
  4   0.7750   0.9000  -0.2549   4.9116   0.7344
  5   0.9500   1.0000  -0.0513   0.0000   0.0377
- INPHYS: end setup WVI.
(PID.TID 0000.0001)  AIM_READPARMS: opening data.aimphys
(PID.TID 0000.0001)  OPEN_COPY_DATA_FILE: opening file data.aimphys
(PID.TID 0000.0001) // =======================================================
(PID.TID 0000.0001) // Parameter file "data.aimphys"
(PID.TID 0000.0001) // =======================================================
(PID.TID 0000.0001) ># AIM physics package parameters:
(PID.TID 0000.0001) >
(PID.TID 0000.0001) >C--   AIM interface parameter (namelist AIM_PARAMS):
(PID.TID 0000.0001) >#     aim_useFMsurfBC :: select surface B.C. from Franco Molteni
(PID.TID 0000.0001) >#     aim_useMMsurfFc :: select Monthly Mean surface forcing (e.g., NCEP)
(PID.TID 0000.0001) >#     aim_surfPotTemp :: surf.Temp input file is in Pot.Temp (aim_useMMsurfFc)
(PID.TID 0000.0001) >#     aim_energPrecip :: account for energy of precipitation (snow & rain temp)
(PID.TID 0000.0001) >#     aim_splitSIOsFx :: compute separately Sea-Ice & Ocean surf. Flux
(PID.TID 0000.0001) >#     aim_LandFile :: file name for Land fraction [0-1]
(PID.TID 0000.0001) >#     aim_MMsufx   :: sufix for all Monthly Mean surface forcing files
(PID.TID 0000.0001) >#     aim_MMsufxLength :: Length of sufix (Monthly Mean surf. forc. files)
(PID.TID 0000.0001) >#     aim_albFile  :: file name for Albedo input file   (F.M. surfBC)
(PID.TID 0000.0001) >#     aim_vegFile  :: file name for vegetation fraction (F.M. surfBC)
(PID.TID 0000.0001) >#     aim_sstFile  :: file name for  Sea.Surf.Temp      (F.M. surfBC)
(PID.TID 0000.0001) >#     aim_lstFile  :: file name for Land.Surf.Temp      (F.M. surfBC)
(PID.TID 0000.0001) >#     aim_oiceFile :: file name for Sea Ice fraction    (F.M. surfBC)
(PID.TID 0000.0001) >#     aim_snowFile :: file name for Snow depth          (F.M. surfBC)
(PID.TID 0000.0001) >#     aim_swcFile  :: file name for Soil Water content  (F.M. surfBC)
(PID.TID 0000.0001) >#     aim_dragStrato  :: stratospheric-drag damping time scale (s)
(PID.TID 0000.0001) >#     aim_select_pCO2 :: select AIM CO2 formulation (= 0,1,2 or 3)
(PID.TID 0000.0001) >#     aim_selectOceAlbedo :: Ocean albedo(latitude) scheme (integer)
(PID.TID 0000.0001) >#                     :: 0 = constant (default); 1 = Briegleb et al. 1986
(PID.TID 0000.0001) >#     aim_clrSkyDiag :: compute clear-sky radiation for diagnostics
(PID.TID 0000.0001) >#     aim_taveFreq :: Frequency^-1 for time-average output (s)
(PID.TID 0000.0001) >#     aim_diagFreq :: Frequency^-1 for diagnostic output (s)
(PID.TID 0000.0001) >#     aim_tendFreq :: Frequency^-1 for tendencies output (s)
(PID.TID 0000.0001) > &AIM_PARAMS
(PID.TID 0000.0001) >#  aim_useFMsurfBC=.FALSE.,
(PID.TID 0000.0001) >#  aim_useMMsurfFc=.TRUE.,
(PID.TID 0000.0001) >#  aim_surfPotTemp=.TRUE.,
(PID.TID 0000.0001) >   aim_energPrecip=.TRUE.,
(PID.TID 0000.0001) >   aim_splitSIOsFx=.TRUE.,
(PID.TID 0000.0001) >   aim_LandFile= 'DDrake.c24.L.LandFrc.bin',
(PID.TID 0000.0001) >   aim_albFile = 'DDrake.c24.L.Albedo_25pc.bin',
(PID.TID 0000.0001) >   aim_vegFile = 'DDrake.c24.L.VegFrc_75pc.bin',
(PID.TID 0000.0001) >#   aim_lstFile = 'lndSurfT.cpl_FM.bin',
(PID.TID 0000.0001) >#   aim_swcFile = 'soilMoist.cpl_FM.bin',
(PID.TID 0000.0001) >#   aim_sstFile = 'seaSurfT.cpl_FM.bin',
(PID.TID 0000.0001) >#   aim_oiceFile= 'seaIce.cpl3FM.bin',
(PID.TID 0000.0001) >#   aim_snowFile= 'snowDepth.cpl_FM.bin',
(PID.TID 0000.0001) >   aim_dragStrato= 2592000.,
(PID.TID 0000.0001) >   aim_selectOceAlbedo=1,
(PID.TID 0000.0001) >   aim_select_pCO2 =3,
(PID.TID 0000.0001) >#- this is aim_abs_pCO2 (new) default:
(PID.TID 0000.0001) >#  aim_abs_pCO2 = 1.2616,
(PID.TID 0000.0001) >#  aim_clrSkyDiag=.TRUE.,
(PID.TID 0000.0001) >#  aim_diagFreq=3600.,
(PID.TID 0000.0001) > /
(PID.TID 0000.0001) >
(PID.TID 0000.0001) >#--   Physical constants
(PID.TID 0000.0001) >#       P0    = reference pressure                 [Pa=N/m2]
(PID.TID 0000.0001) >#       GG    = gravity accel.                     [m/s2]
(PID.TID 0000.0001) >#       RD    = gas constant for dry air           [J/kg/K]
(PID.TID 0000.0001) >#       CP    = specific heat at constant pressure [J/kg/K]
(PID.TID 0000.0001) >#       ALHC  = latent heat of condensation        [J/g]
(PID.TID 0000.0001) >#       ALHF  = latent heat of freezing            [J/g]
(PID.TID 0000.0001) >#       SBC   = Stefan-Boltzmann constant
(PID.TID 0000.0001) >#     rainCP  = heat capacity of liquid water      [J/g/K]
(PID.TID 0000.0001) >#     tFreeze = freezing temperature of pure water [K]
(PID.TID 0000.0001) >
(PID.TID 0000.0001) >#--   Constants for forcing fields (namelist AIM_PAR_FOR):
(PID.TID 0000.0001) >#      SOLC   = Solar constant (area averaged) in W/m^2
(PID.TID 0000.0001) >#      ALBSEA = Albedo over sea
(PID.TID 0000.0001) >#      ALBICE = Albedo over sea ice (for ice fraction = 1)
(PID.TID 0000.0001) >#      ALBSN  = Albedo over snow (for snow depth > SDALB)
(PID.TID 0000.0001) >#      SDALB  = Snow depth (mm water) corresponding to maximum albedo
(PID.TID 0000.0001) >#      SWCAP  = Soil wetness at field capacity (volume fraction)
(PID.TID 0000.0001) >#      SWWIL  = Soil wetness at wilting point  (volume fraction)
(PID.TID 0000.0001) >#      hSnowWetness :: snow depth (m) corresponding to maximum wetness
(PID.TID 0000.0001) > &AIM_PAR_FOR
(PID.TID 0000.0001) >    ALBSEA = 0.095,
(PID.TID 0000.0001) >    SOLC = 341.5,
(PID.TID 0000.0001) >    SWCAP = 0.29,
(PID.TID 0000.0001) > /
(PID.TID 0000.0001) >
(PID.TID 0000.0001) >#--   Constants for surface fluxes (namelist AIM_PAR_SFL):
(PID.TID 0000.0001) >#      FWIND0 = ratio of near-sfc wind to lowest-level wind
(PID.TID 0000.0001) >#      FTEMP0 = weight for near-sfc temperature extrapolation (0-1) :
(PID.TID 0000.0001) >#               1 : linear extrapolation from two lowest levels
(PID.TID 0000.0001) >#               0 : constant potential temperature ( = lowest level)
(PID.TID 0000.0001) >#      FHUM0  = weight for near-sfc specific humidity extrapolation (0-1) :
(PID.TID 0000.0001) >#               1 : extrap. with constant relative hum. ( = lowest level)
(PID.TID 0000.0001) >#               0 : constant specific hum. ( = lowest level)
(PID.TID 0000.0001) >#      CDL    = drag coefficient for momentum over land
(PID.TID 0000.0001) >#      CDS    = drag coefficient for momentum over sea
(PID.TID 0000.0001) >#      CHL    = heat exchange coefficient over land
(PID.TID 0000.0001) >#      CHS    = heat exchange coefficient over sea
(PID.TID 0000.0001) >#      VGUST  = wind speed for sub-grid-scale gusts
(PID.TID 0000.0001) >#      CTDAY  = daily-cycle correction (dTskin/dSSRad)
(PID.TID 0000.0001) >#      DTHETA = Potential temp. gradient for stability correction
(PID.TID 0000.0001) >#      dTstab = potential temp. increment for stability function derivative
(PID.TID 0000.0001) >#      FSTAB  = Amplitude of stability correction (fraction)
(PID.TID 0000.0001) >#      HDRAG  = Height scale for orographic correction
(PID.TID 0000.0001) >#      FHDRAG = Amplitude of orographic correction (fraction)
(PID.TID 0000.0001) > &AIM_PAR_SFL
(PID.TID 0000.0001) >#  FTEMP0 = 0.,
(PID.TID 0000.0001) >#  FHUM0  = 0.,
(PID.TID 0000.0001) >#  dTstab = 0.,
(PID.TID 0000.0001) > /
(PID.TID 0000.0001) >
(PID.TID 0000.0001) >#--   Convection constants (namelist AIM_PAR_CNV):
(PID.TID 0000.0001) >#      PSMIN  = minimum (norm.) sfc. pressure for the occurrence of convection
(PID.TID 0000.0001) >#      TRCNV  = time of relaxation (in hours) towards reference state
(PID.TID 0000.0001) >#      QBL    = specific hum. threshold in the boundary layer
(PID.TID 0000.0001) >#      RHBL   = relative hum. threshold in the boundary layer
(PID.TID 0000.0001) >#      RHIL   = rel. hum. threshold in intermed. layers for secondary mass flux
(PID.TID 0000.0001) >#      ENTMAX = max. entrainment as a fraction of cloud-base mass flux
(PID.TID 0000.0001) >#      SMF    = ratio between secondary and primary mass flux at cloud-base
(PID.TID 0000.0001) > &AIM_PAR_CNV
(PID.TID 0000.0001) > /
(PID.TID 0000.0001) >
(PID.TID 0000.0001) >#--   Constants for large-scale condensation (namelist AIM_PAR_LSC):
(PID.TID 0000.0001) >#      TRLSC  = Relaxation time (in hours) for specific humidity
(PID.TID 0000.0001) >#      RHLSC  = Maximum relative humidity threshold (at sigma=1)
(PID.TID 0000.0001) >#      DRHLSC = Vertical range of relative humidity threshold
(PID.TID 0000.0001) >#      QSMAX  = used to define the maximum latent heat release
(PID.TID 0000.0001) > &AIM_PAR_LSC
(PID.TID 0000.0001) > /
(PID.TID 0000.0001) >
(PID.TID 0000.0001) >#--   Radiation constants (namelist AIM_PAR_RAD):
(PID.TID 0000.0001) >#      RHCL1  = relative hum. corresponding to cloud cover = 0
(PID.TID 0000.0001) >#      RHCL2  = relative hum. corresponding to cloud cover = 1
(PID.TID 0000.0001) >#      QACL1  = specific hum. threshold for cloud cover in the upper troposphere
(PID.TID 0000.0001) >#      QACL2  = specific hum. threshold for cloud cover in the upper troposphere
(PID.TID 0000.0001) >#      ALBCL  = cloud albedo (for cloud cover = 1)
(PID.TID 0000.0001) >#      EPSSW  = fraction of incoming solar radiation absorbed by ozone
(PID.TID 0000.0001) >#      EPSLW  = fraction of surface LW radiation emitted directly to space
(PID.TID 0000.0001) >#      EMISFC = longwave surface emissivity
(PID.TID 0000.0001) >#--:            shortwave absorptivities (for dp = 10^5 Pa) :
(PID.TID 0000.0001) >#      ABSDRY = abs. of dry air      (visible band)
(PID.TID 0000.0001) >#      ABSAER = abs. of aerosols     (visible band)
(PID.TID 0000.0001) >#      ABSWV1 = abs. of water vapour (visible band, for dq = 1 g/kg)
(PID.TID 0000.0001) >#      ABSWV2 = abs. of water vapour (near IR band, for dq = 1 g/kg)
(PID.TID 0000.0001) >#      ABSCL1 = abs. of clouds       (visible band, constant term)
(PID.TID 0000.0001) >#      ABSCL2 = abs. of clouds       (visible band, for dw = 1 g/kg)
(PID.TID 0000.0001) >#--:            longwave absorptivities (per dp = 10^5 Pa) :
(PID.TID 0000.0001) >#      ABLWIN = abs. of air in "window" band
(PID.TID 0000.0001) >#      ABLCO2 = abs. of air in CO2 band
(PID.TID 0000.0001) >#      ABLWV1 = abs. of water vapour in H2O band 1 (weak),   for dq = 1 g/kg
(PID.TID 0000.0001) >#      ABLWV2 = abs. of water vapour in H2O band 2 (strong), for dq = 1 g/kg
(PID.TID 0000.0001) >#      ABLCL1 = abs. of clouds       in "window" band,       constant term
(PID.TID 0000.0001) >#      ABLCL2 = abs. of clouds       in "window" band,       for dw = 1 g/kg
(PID.TID 0000.0001) > &AIM_PAR_RAD
(PID.TID 0000.0001) >#  EPSLW=0.005
(PID.TID 0000.0001) > /
(PID.TID 0000.0001) >
(PID.TID 0000.0001) >#--   Constants for vertical dif. and sh. conv. (namelist AIM_PAR_VDI):
(PID.TID 0000.0001) >#      TRSHC  = relaxation time (in hours) for shallow convection
(PID.TID 0000.0001) >#      TRVDI  = relaxation time (in hours) for moisture diffusion
(PID.TID 0000.0001) >#      TRVDS  = relaxation time (in hours) for super-adiab. conditions
(PID.TID 0000.0001) >#      RHGRAD = maximum gradient of relative humidity (d_RH/d_sigma)
(PID.TID 0000.0001) >#      SEGRAD = minimum gradient of dry static energy (d_DSE/d_phi)
(PID.TID 0000.0001) > &AIM_PAR_VDI
(PID.TID 0000.0001) > /
(PID.TID 0000.0001) 
(PID.TID 0000.0001)  AIM_READPARMS: finished reading data.aimphys
(PID.TID 0000.0001) 
(PID.TID 0000.0001) // ===================================
(PID.TID 0000.0001) // AIM physics parameters :
(PID.TID 0000.0001) // ===================================
(PID.TID 0000.0001) useLand =   /* use Land package for surf.BC over land  */
(PID.TID 0000.0001)                   T
(PID.TID 0000.0001)     ;
(PID.TID 0000.0001) aim_useFMsurfBC =   /* F.Molteni surf. BC scheme on/off flag */
(PID.TID 0000.0001)                   T
(PID.TID 0000.0001)     ;
(PID.TID 0000.0001) aim_useMMsurfFc =   /* Monthly Mean surf. Forcing on/off flag */
(PID.TID 0000.0001)                   F
(PID.TID 0000.0001)     ;
(PID.TID 0000.0001) aim_surfForc_TimePeriod = /* Length of forcing time period (s) */
(PID.TID 0000.0001)                 2.592000000000000E+06
(PID.TID 0000.0001)     ;
(PID.TID 0000.0001) aim_surfForc_NppCycle   = /* Number of time period per Cycle */
(PID.TID 0000.0001)                      12
(PID.TID 0000.0001)     ;
(PID.TID 0000.0001) aim_surfForc_TransRatio = /* transition ratio from one month to the next */
(PID.TID 0000.0001)                 1.000000000000000E+00
(PID.TID 0000.0001)     ;
(PID.TID 0000.0001) aim_surfPotTemp =   /* Surf Temp file in Pot.Temp on/off flag */
(PID.TID 0000.0001)                   F
(PID.TID 0000.0001)     ;
(PID.TID 0000.0001) aim_energPrecip = /* account for energy of precip. on/off flag */
(PID.TID 0000.0001)                   T
(PID.TID 0000.0001)     ;
(PID.TID 0000.0001) aim_splitSIOsFx = /* separate Sea-Ice & Ocean Flux on/off flag */
(PID.TID 0000.0001)                   T
(PID.TID 0000.0001)     ;
(PID.TID 0000.0001) aim_dragStrato= /* stratospheric-drag damping time scale (s) */
(PID.TID 0000.0001)                 2.592000000000000E+06
(PID.TID 0000.0001)     ;
(PID.TID 0000.0001) aim_selectOceAlbedo = /* Ocean albedo(latitude) flag */
(PID.TID 0000.0001)                       1
(PID.TID 0000.0001)     ;
(PID.TID 0000.0001) aim_select_pCO2= /* select AIM CO2 option */
(PID.TID 0000.0001)                       3
(PID.TID 0000.0001)    =0: prescribed LW absorption in CO2 band (=ABLCO2)
(PID.TID 0000.0001)    =1: absorption fct of prescribed pCO2 (=aim_fixed_pCO2)
(PID.TID 0000.0001)    =2: same as 0 with passive,  well-mixed pCO2 atm box
(PID.TID 0000.0001)    =3: same as 1 with evolving, well-mixed pCO2 atm-box
(PID.TID 0000.0001)     ;
(PID.TID 0000.0001) aim_abs_pCO2 = /* pCO2 dep. coeff. of CO2 absortion */
(PID.TID 0000.0001)                 1.261600000000000E+00
(PID.TID 0000.0001)     ;
(PID.TID 0000.0001) atmpCO2init = /* Initial atm-box pCO2 */
(PID.TID 0000.0001)                 3.200000000000000E-04
(PID.TID 0000.0001)     ;
(PID.TID 0000.0001) aim_clrSkyDiag = /* do clear-sky radiation diagnostics */
(PID.TID 0000.0001)                   F
(PID.TID 0000.0001)     ;
(PID.TID 0000.0001) aim_taveFreq =   /* Frequency^-1 for time-Aver. output (s) */
(PID.TID 0000.0001)                 0.000000000000000E+00
(PID.TID 0000.0001)     ;
(PID.TID 0000.0001) aim_diagFreq =   /* Frequency^-1 for diagnostic output (s) */
(PID.TID 0000.0001)                 0.000000000000000E+00
(PID.TID 0000.0001)     ;
(PID.TID 0000.0001) aim_tendFreq =   /* Frequency^-1 for tendencies output (s) */
(PID.TID 0000.0001)                 0.000000000000000E+00
(PID.TID 0000.0001)     ;
(PID.TID 0000.0001) AIM_FOR:   SOLC =   /* Solar constant (area averaged) in W/m2 */
(PID.TID 0000.0001)                 3.415000000000000E+02
(PID.TID 0000.0001)     ;
(PID.TID 0000.0001) AIM_FOR:  OBLIQ =   /* Obliquity (degree) used with ALLOW_INSOLATION */
(PID.TID 0000.0001)                 2.345000000000000E+01
(PID.TID 0000.0001)     ;
(PID.TID 0000.0001) AIM_FOR: ALBSEA =   /* Albedo over sea [0-1]      */
(PID.TID 0000.0001)                 9.500000000000000E-02
(PID.TID 0000.0001)     ;
(PID.TID 0000.0001) AIM_FOR: ALBICE =   /* Albedo over sea ice (for ice fraction =1) */
(PID.TID 0000.0001)                 6.000000000000000E-01
(PID.TID 0000.0001)     ;
(PID.TID 0000.0001) AIM_FOR:  ALBSN =   /* Albedo over snow (for snow depth > SDALB) */
(PID.TID 0000.0001)                 6.000000000000000E-01
(PID.TID 0000.0001)     ;
(PID.TID 0000.0001) AIM_FOR:  SDALB =   /* Snow depth (mm H2O) corresp. maximum albedo */
(PID.TID 0000.0001)                 6.000000000000000E+01
(PID.TID 0000.0001)     ;
(PID.TID 0000.0001) AIM_FOR:  SWCAP =   /* Soil wetness at field capacity (Vol.fract.) */
(PID.TID 0000.0001)                 2.900000000000000E-01
(PID.TID 0000.0001)     ;
(PID.TID 0000.0001) AIM_FOR:  SWWIL =   /* Soil wetness at wilting point  (Vol.fract.) */
(PID.TID 0000.0001)                 1.700000000000000E-01
(PID.TID 0000.0001)     ;
(PID.TID 0000.0001) AIM_FOR: hSnowWetness=   /* snow depth corresp. maximum wetness (m) */
(PID.TID 0000.0001)                 1.000000000000000E-02
(PID.TID 0000.0001)     ;
(PID.TID 0000.0001) AIM_SFL: FWIND0 =   /* ratio of near-sfc wind to lowest-level wind */
(PID.TID 0000.0001)                 6.000000000000000E-01
(PID.TID 0000.0001)     ;
(PID.TID 0000.0001) AIM_SFL: FTEMP0 =  /* weight for near-sfc temp. extrapolation (0-1)*/
(PID.TID 0000.0001)                 1.000000000000000E+00
(PID.TID 0000.0001)     ;
(PID.TID 0000.0001) AIM_SFL:  FHUM0 =  /* weight for near-sfc spec.humid. extrap. (0-1)*/
(PID.TID 0000.0001)                 1.000000000000000E+00
(PID.TID 0000.0001)     ;
(PID.TID 0000.0001) AIM_SFL:    CDL =   /* drag coefficient for momentum over land */
(PID.TID 0000.0001)                 1.800000000000000E-03
(PID.TID 0000.0001)     ;
(PID.TID 0000.0001) AIM_SFL:    CDS =   /* drag coefficient for momentum over sea  */
(PID.TID 0000.0001)                 8.000000000000000E-04
(PID.TID 0000.0001)     ;
(PID.TID 0000.0001) AIM_SFL:    CHL =   /* heat exchange coefficient over land */
(PID.TID 0000.0001)                 1.200000000000000E-03
(PID.TID 0000.0001)     ;
(PID.TID 0000.0001) AIM_SFL:    CHS =   /* heat exchange coefficient over sea  */
(PID.TID 0000.0001)                 8.000000000000000E-04
(PID.TID 0000.0001)     ;
(PID.TID 0000.0001) AIM_SFL:  VGUST =   /* wind speed [m/s] for sub-grid-scale gusts */
(PID.TID 0000.0001)                 5.000000000000000E+00
(PID.TID 0000.0001)     ;
(PID.TID 0000.0001) AIM_SFL:  CTDAY =   /* daily-cycle correction (dTskin/dSSRad) */
(PID.TID 0000.0001)                 1.000000000000000E-02
(PID.TID 0000.0001)     ;
(PID.TID 0000.0001) AIM_SFL: DTHETA =   /* Pot.Temp. gradient for stability correction */
(PID.TID 0000.0001)                 3.000000000000000E+00
(PID.TID 0000.0001)     ;
(PID.TID 0000.0001) AIM_SFL: dTstab =   /* Pot.Temp. increment for stab.funct. derivative */
(PID.TID 0000.0001)                 1.000000000000000E+00
(PID.TID 0000.0001)     ;
(PID.TID 0000.0001) AIM_SFL:  FSTAB =   /* Amplitude of stability correction (fract.) */
(PID.TID 0000.0001)                 6.700000000000000E-01
(PID.TID 0000.0001)     ;
(PID.TID 0000.0001) AIM_SFL:  HDRAG =   /* Height scale for orographic correction */
(PID.TID 0000.0001)                 2.000000000000000E+03
(PID.TID 0000.0001)     ;
(PID.TID 0000.0001) AIM_SFL: FHDRAG =   /* Amplitude of orographic correction (fract.)*/
(PID.TID 0000.0001)                 8.000000000000000E-01
(PID.TID 0000.0001)     ;
(PID.TID 0000.0001) AIM_CNV:  PSMIN =   /* min norm.sfc.P. for occurrence of convect. */
(PID.TID 0000.0001)                 7.000000000000000E-01
(PID.TID 0000.0001)     ;
(PID.TID 0000.0001) AIM_CNV:  TRCNV =   /* time of relaxation [h] towards ref state */
(PID.TID 0000.0001)                 6.000000000000000E+00
(PID.TID 0000.0001)     ;
(PID.TID 0000.0001) AIM_CNV:    QBL =   /* specific hum. threshold in the Bound.layer */
(PID.TID 0000.0001)                 1.500000000000000E+01
(PID.TID 0000.0001)     ;
(PID.TID 0000.0001) AIM_CNV:   RHBL =   /* relative hum. threshold in the Bound.layer */
(PID.TID 0000.0001)                 8.000000000000000E-01
(PID.TID 0000.0001)     ;
(PID.TID 0000.0001) AIM_CNV:   RHIL =   /* rel.hum. threshold (intern) for 2nd mass.Flx*/
(PID.TID 0000.0001)                 7.000000000000000E-01
(PID.TID 0000.0001)     ;
(PID.TID 0000.0001) AIM_CNV: ENTMAX =   /* time of relaxation [h] towards neutral eq. */
(PID.TID 0000.0001)                 5.000000000000000E-01
(PID.TID 0000.0001)     ;
(PID.TID 0000.0001) AIM_CNV:    SMF =   /* ratio 2ndary/primary mass.Flx at cloud-base*/
(PID.TID 0000.0001)                 5.000000000000000E-01
(PID.TID 0000.0001)     ;
(PID.TID 0000.0001) AIM_LSC:  TRLSC =   /* relaxation time [h] for supersat. spec.hum. */
(PID.TID 0000.0001)                 4.000000000000000E+00
(PID.TID 0000.0001)     ;
(PID.TID 0000.0001) AIM_LSC:  RHLSC =   /* Max rel.humidity threshold (at sigma=1) */
(PID.TID 0000.0001)                 9.000000000000000E-01
(PID.TID 0000.0001)     ;
(PID.TID 0000.0001) AIM_LSC: DRHLSC =   /* Vertical range of rel.humidity threshold */
(PID.TID 0000.0001)                 1.000000000000000E-01
(PID.TID 0000.0001)     ;
(PID.TID 0000.0001) AIM_LSC:  QSMAX =   /* Define the maximum latent heat release */
(PID.TID 0000.0001)                 5.000000000000000E+01
(PID.TID 0000.0001)     ;
(PID.TID 0000.0001) AIM_RAD:  RHCL1 =   /*  rel.hum. corresponding to cloud cover = 0 */
(PID.TID 0000.0001)                 4.500000000000000E-01
(PID.TID 0000.0001)     ;
(PID.TID 0000.0001) AIM_RAD:  RHCL2 =   /*  rel.hum. corresponding to cloud cover = 1 */
(PID.TID 0000.0001)                 8.500000000000000E-01
(PID.TID 0000.0001)     ;
(PID.TID 0000.0001) AIM_RAD:  QACL1 =   /* spec.hum. threshold for cloud, upper trop. */
(PID.TID 0000.0001)                 1.000000000000000E-01
(PID.TID 0000.0001)     ;
(PID.TID 0000.0001) AIM_RAD:  QACL2 =   /* spec.hum. threshold for cloud, upper trop. */
(PID.TID 0000.0001)                 1.000000000000000E+00
(PID.TID 0000.0001)     ;
(PID.TID 0000.0001) AIM_RAD:  ALBCL =   /*  cloud albedo (for cloud cover = 1) */
(PID.TID 0000.0001)                 4.000000000000000E-01
(PID.TID 0000.0001)     ;
(PID.TID 0000.0001) AIM_RAD:  EPSSW =   /*  fract. of inc.solar rad. absorbed by ozone */
(PID.TID 0000.0001)                 1.500000000000000E-02
(PID.TID 0000.0001)     ;
(PID.TID 0000.0001) AIM_RAD:  EPSLW =   /*  fract. of sfc LW emitted directly to space */
(PID.TID 0000.0001)                 0.000000000000000E+00
(PID.TID 0000.0001)     ;
(PID.TID 0000.0001) AIM_RAD: EMISFC =   /*  longwave surface emissivity */
(PID.TID 0000.0001)                 9.800000000000000E-01
(PID.TID 0000.0001)     ;
(PID.TID 0000.0001)  AIM_RAD : ShortWave absorptivities (for dp = 10^5 Pa) :
(PID.TID 0000.0001) AIM_RAD: ABSDRY =   /* abs. of dry air (visible band) */
(PID.TID 0000.0001)                 3.300000000000000E-02
(PID.TID 0000.0001)     ;
(PID.TID 0000.0001) AIM_RAD: ABSAER =   /* abs. of aerosols (visible band) */
(PID.TID 0000.0001)                 3.300000000000000E-02
(PID.TID 0000.0001)     ;
(PID.TID 0000.0001) AIM_RAD: ABSWV1 =   /* abs. of water vap. (vis. band)(/dq, 1g/kg) */
(PID.TID 0000.0001)                 2.200000000000000E-02
(PID.TID 0000.0001)     ;
(PID.TID 0000.0001) AIM_RAD: ABSWV2 =   /* abs. of water vap.(near IR bd)(/dq, 1g/kg) */
(PID.TID 0000.0001)                 1.500000000000000E+01
(PID.TID 0000.0001)     ;
(PID.TID 0000.0001) AIM_RAD: ABSCL1 =   /* abs. of clouds (vis.band)(constant term) */
(PID.TID 0000.0001)                 0.000000000000000E+00
(PID.TID 0000.0001)     ;
(PID.TID 0000.0001) AIM_RAD: ABSCL2 =   /* abs. of clouds (vis.band) (/dw, 1g/kg) */
(PID.TID 0000.0001)                 1.000000000000000E-02
(PID.TID 0000.0001)     ;
(PID.TID 0000.0001) AIM_RAD: ABLWIN =   /* abs. of air in "window" band */
(PID.TID 0000.0001)                 7.000000000000000E-01
(PID.TID 0000.0001)     ;
(PID.TID 0000.0001) AIM_RAD: ABLCO2 =   /* abs. of air in CO2 band */
(PID.TID 0000.0001)                 4.000000000000000E+00
(PID.TID 0000.0001)     ;
(PID.TID 0000.0001) AIM_RAD: ABLWV1 =   /* abs. of Water vap. H2O bd-1(weak)(/dq,1g/kg)*/
(PID.TID 0000.0001)                 7.000000000000000E-01
(PID.TID 0000.0001)     ;
(PID.TID 0000.0001) AIM_RAD: ABLWV2 =   /* abs. of W. vap., H2O bd-2(strong)(/dq,1g/kg)*/
(PID.TID 0000.0001)                 5.000000000000000E+01
(PID.TID 0000.0001)     ;
(PID.TID 0000.0001) AIM_RAD: ABLCL1 =   /* abs. of clouds in window band (const term) */
(PID.TID 0000.0001)                 1.200000000000000E+01
(PID.TID 0000.0001)     ;
(PID.TID 0000.0001) AIM_RAD: ABLCL2 =   /* abs. of clouds in window band (/dw, 1g/kg) */
(PID.TID 0000.0001)                 0.000000000000000E+00
(PID.TID 0000.0001)     ;
(PID.TID 0000.0001) AIM_VDI:  TRSHC =   /* relaxation time [h] for shallow convection */
(PID.TID 0000.0001)                 2.400000000000000E+01
(PID.TID 0000.0001)     ;
(PID.TID 0000.0001) AIM_VDI:  TRVDI =   /* relaxation time [h] for moisture diffusion */
(PID.TID 0000.0001)                 4.000000000000000E+01
(PID.TID 0000.0001)     ;
(PID.TID 0000.0001) AIM_VDI:  TRVDS =   /* relaxation time [h] for super-adiab. cond. */
(PID.TID 0000.0001)                 5.000000000000000E+00
(PID.TID 0000.0001)     ;
(PID.TID 0000.0001) AIM_VDI: RHGRAD =   /* max gradient of rel.humidity (d_RH/d_sigma)*/
(PID.TID 0000.0001)                 5.000000000000000E-01
(PID.TID 0000.0001)     ;
(PID.TID 0000.0001) AIM_VDI: SEGRAD =   /* max grad. of dry static Energy(d_DSE/d_phi)*/
(PID.TID 0000.0001)                 1.000000000000000E-01
(PID.TID 0000.0001)     ;
(PID.TID 0000.0001)  MDS_READ_FIELD: opening global file: DDrake.c24.L.LandFrc.bin
(PID.TID 0000.0001) ------------------------------------------------------------
(PID.TID 0000.0001) DIAGNOSTICS_SET_LEVELS: done
(PID.TID 0000.0001)  Total Nb of available Diagnostics: ndiagt=   284
(PID.TID 0000.0001)  write list of available Diagnostics to file: available_diagnostics.log
(PID.TID 0000.0001)   space allocated for all diagnostics:       0 levels
(PID.TID 0000.0001) DIAGNOSTICS_SET_POINTERS: done
(PID.TID 0000.0001) ------------------------------------------------------------
(PID.TID 0000.0001) DIAGSTATS_SET_REGIONS: define   0 regions:
(PID.TID 0000.0001) ------------------------------------------------------------
(PID.TID 0000.0001) SETDIAG: Allocate  1 Levels for Stats-Diag #   187 SI_Fract
(PID.TID 0000.0001) SETDIAG: Allocate  1 Levels for Stats-Diag #   188 SI_Thick
(PID.TID 0000.0001) - NOTE - SETDIAG: Counter Diagnostic #   187 SI_Fract has already been set
(PID.TID 0000.0001) SETDIAG: Allocate  1 Levels for Stats-Diag #   273 aim_pCO2
(PID.TID 0000.0001) SETDIAG: Allocate  1 Levels for Stats-Diag #   279 CPL_fCO2
(PID.TID 0000.0001) SETDIAG: Allocate  1 Levels for Stats-Diag #   275 CPL_MxlD
(PID.TID 0000.0001) SETDIAG: Allocate  1 Levels for Stats-Diag #   276 CPL_SST
(PID.TID 0000.0001) SETDIAG: Allocate  1 Levels for Stats-Diag #   277 CPL_SSS
(PID.TID 0000.0001) SETDIAG: Allocate  1 Levels for Stats-Diag #   278 CPL_Vel2
(PID.TID 0000.0001)   space allocated for all stats-diags:       8 levels
(PID.TID 0000.0001) DIAGSTATS_SET_POINTERS: done
(PID.TID 0000.0001) ------------------------------------------------------------
(PID.TID 0000.0001) DIAGSTATS_INI_IO: open file: cplStDiag.0556243200.txt , unit=     9
(PID.TID 0000.0001) INI_GLOBAL_DOMAIN: Found  24 CS-corner Pts in the domain
(PID.TID 0000.0001) %MON fCori_max                    =   1.4567502339562E-04
(PID.TID 0000.0001) %MON fCori_min                    =  -1.4567502339562E-04
(PID.TID 0000.0001) %MON fCori_mean                   =   0.0000000000000E+00
(PID.TID 0000.0001) %MON fCori_sd                     =   8.4202189509968E-05
(PID.TID 0000.0001) %MON fCoriG_max                   =   1.4584247033981E-04
(PID.TID 0000.0001) %MON fCoriG_min                   =  -1.4584247033981E-04
(PID.TID 0000.0001) %MON fCoriG_mean                  =   0.0000000000000E+00
(PID.TID 0000.0001) %MON fCoriG_sd                    =   8.4202189509968E-05
(PID.TID 0000.0001) %MON fCoriCos_max                 =   1.4576983647246E-04
(PID.TID 0000.0001) %MON fCoriCos_min                 =   6.9866811507555E-06
(PID.TID 0000.0001) %MON fCoriCos_mean                =   1.1514319395261E-04
(PID.TID 0000.0001) %MON fCoriCos_sd                  =   3.0365479132357E-05
(PID.TID 0000.0001) INI_CG2D: CG2D normalisation factor =  9.9248776744038879E-06
(PID.TID 0000.0001) INI_CG2D: cg2dTolerance = 4.217697098817453E-11 (Area=5.0995454903E+14)
(PID.TID 0000.0001) 
(PID.TID 0000.0001) INI_CG3D: CG3D normalisation factor =  2.1003147681215932E-07
(PID.TID 0000.0001) 
(PID.TID 0000.0001) // =======================================================
(PID.TID 0000.0001) // Model configuration
(PID.TID 0000.0001) // =======================================================
(PID.TID 0000.0001) //
(PID.TID 0000.0001) // "Physical" paramters ( PARM01 in namelist )
(PID.TID 0000.0001) //
(PID.TID 0000.0001) buoyancyRelation = /* Type of relation to get Buoyancy */
(PID.TID 0000.0001)               'ATMOSPHERIC'
(PID.TID 0000.0001)     ;
(PID.TID 0000.0001) fluidIsAir   =  /* fluid major constituent is Air */
(PID.TID 0000.0001)                   T
(PID.TID 0000.0001)     ;
(PID.TID 0000.0001) fluidIsWater =  /* fluid major constituent is Water */
(PID.TID 0000.0001)                   F
(PID.TID 0000.0001)     ;
(PID.TID 0000.0001) usingPCoords =  /* use p (or p*) vertical coordinate */
(PID.TID 0000.0001)                   T
(PID.TID 0000.0001)     ;
(PID.TID 0000.0001) usingZCoords =  /* use z (or z*) vertical coordinate */
(PID.TID 0000.0001)                   F
(PID.TID 0000.0001)     ;
(PID.TID 0000.0001) tRef =   /* Reference temperature profile ( oC or K ) */
(PID.TID 0000.0001)                 2.896000000000000E+02,      /* K =  1 */
(PID.TID 0000.0001)                 2.981000000000000E+02,      /* K =  2 */
(PID.TID 0000.0001)                 3.145000000000000E+02,      /* K =  3 */
(PID.TID 0000.0001)                 3.358000000000000E+02,      /* K =  4 */
(PID.TID 0000.0001)                 4.374000000000000E+02       /* K =  5 */
(PID.TID 0000.0001)     ;
(PID.TID 0000.0001) sRef =   /* Reference salinity profile ( g/kg ) */
(PID.TID 0000.0001)     5 @  0.000000000000000E+00              /* K =  1:  5 */
(PID.TID 0000.0001)     ;
(PID.TID 0000.0001) useStrainTensionVisc= /* Use StrainTension Form of Viscous Operator */
(PID.TID 0000.0001)                   F
(PID.TID 0000.0001)     ;
(PID.TID 0000.0001) useVariableVisc = /* Use variable horizontal viscosity */
(PID.TID 0000.0001)                   F
(PID.TID 0000.0001)     ;
(PID.TID 0000.0001) useHarmonicVisc = /* Use harmonic horizontal viscosity */
(PID.TID 0000.0001)                   F
(PID.TID 0000.0001)     ;
(PID.TID 0000.0001) useBiharmonicVisc= /* Use biharmonic horiz.  viscosity */
(PID.TID 0000.0001)                   F
(PID.TID 0000.0001)     ;
(PID.TID 0000.0001) useSmag3D = /* Use isotropic 3-D Smagorinsky viscosity */
(PID.TID 0000.0001)                   F
(PID.TID 0000.0001)     ;
(PID.TID 0000.0001) viscAh  =   /* Lateral harmonic viscosity ( m^2/s ) */
(PID.TID 0000.0001)                 0.000000000000000E+00
(PID.TID 0000.0001)     ;
(PID.TID 0000.0001) viscA4  =   /* Lateral biharmonic viscosity ( m^4/s ) */
(PID.TID 0000.0001)                 0.000000000000000E+00
(PID.TID 0000.0001)     ;
(PID.TID 0000.0001) no_slip_sides =  /* Viscous BCs: No-slip sides */
(PID.TID 0000.0001)                   F
(PID.TID 0000.0001)     ;
(PID.TID 0000.0001) sideDragFactor = /* side-drag scaling factor (non-dim) */
(PID.TID 0000.0001)                 2.000000000000000E+00
(PID.TID 0000.0001)     ;
(PID.TID 0000.0001) viscArNr = /* vertical profile of vertical viscosity (Pa^2/s )*/
(PID.TID 0000.0001)     5 @  0.000000000000000E+00              /* K =  1:  5 */
(PID.TID 0000.0001)     ;
(PID.TID 0000.0001) no_slip_bottom =  /* Viscous BCs: No-slip bottom */
(PID.TID 0000.0001)                   F
(PID.TID 0000.0001)     ;
(PID.TID 0000.0001) bottomVisc_pCell = /* Partial-cell in bottom Visc. BC */
(PID.TID 0000.0001)                   F
(PID.TID 0000.0001)     ;
(PID.TID 0000.0001) bottomDragLinear = /* linear bottom-drag coefficient ( m/s ) */
(PID.TID 0000.0001)                 0.000000000000000E+00
(PID.TID 0000.0001)     ;
(PID.TID 0000.0001) bottomDragQuadratic = /* quadratic bottom-drag coefficient (-) */
(PID.TID 0000.0001)                 0.000000000000000E+00
(PID.TID 0000.0001)     ;
(PID.TID 0000.0001) selectBotDragQuadr = /* select quadratic bottom drag options */
(PID.TID 0000.0001)                      -1
(PID.TID 0000.0001)     ;
(PID.TID 0000.0001) diffKhT =   /* Laplacian diffusion of heat laterally ( m^2/s ) */
(PID.TID 0000.0001)                 0.000000000000000E+00
(PID.TID 0000.0001)     ;
(PID.TID 0000.0001) diffK4T =   /* Biharmonic diffusion of heat laterally ( m^4/s ) */
(PID.TID 0000.0001)                 0.000000000000000E+00
(PID.TID 0000.0001)     ;
(PID.TID 0000.0001) diffKhS =   /* Laplacian diffusion of salt laterally ( m^2/s ) */
(PID.TID 0000.0001)                 0.000000000000000E+00
(PID.TID 0000.0001)     ;
(PID.TID 0000.0001) diffK4S =   /* Biharmonic diffusion of salt laterally ( m^4/s ) */
(PID.TID 0000.0001)                 0.000000000000000E+00
(PID.TID 0000.0001)     ;
(PID.TID 0000.0001) diffKrNrT = /* vertical profile of vertical diffusion of Temp (Pa^2/s )*/
(PID.TID 0000.0001)     5 @  0.000000000000000E+00              /* K =  1:  5 */
(PID.TID 0000.0001)     ;
(PID.TID 0000.0001) diffKrNrS = /* vertical profile of vertical diffusion of Salt (Pa^2/s )*/
(PID.TID 0000.0001)     5 @  0.000000000000000E+00              /* K =  1:  5 */
(PID.TID 0000.0001)     ;
(PID.TID 0000.0001) diffKrBL79surf = /* Surface diffusion for Bryan and Lewis 79 ( m^2/s ) */
(PID.TID 0000.0001)                 0.000000000000000E+00
(PID.TID 0000.0001)     ;
(PID.TID 0000.0001) diffKrBL79deep = /* Deep diffusion for Bryan and Lewis 1979 ( m^2/s ) */
(PID.TID 0000.0001)                 0.000000000000000E+00
(PID.TID 0000.0001)     ;
(PID.TID 0000.0001) diffKrBL79scl = /* Depth scale for Bryan and Lewis 1979 ( m ) */
(PID.TID 0000.0001)                 2.000000000000000E+02
(PID.TID 0000.0001)     ;
(PID.TID 0000.0001) diffKrBL79Ho = /* Turning depth for Bryan and Lewis 1979 ( m ) */
(PID.TID 0000.0001)                -2.000000000000000E+03
(PID.TID 0000.0001)     ;
(PID.TID 0000.0001) ivdc_kappa = /* Implicit Vertical Diffusivity for Convection (Pa^2/s) */
(PID.TID 0000.0001)                 0.000000000000000E+00
(PID.TID 0000.0001)     ;
(PID.TID 0000.0001) hMixCriteria=  /* Criteria for mixed-layer diagnostic */
(PID.TID 0000.0001)                -8.000000000000000E-01
(PID.TID 0000.0001)     ;
(PID.TID 0000.0001) dRhoSmall =  /* Parameter for mixed-layer diagnostic */
(PID.TID 0000.0001)                 1.000000000000000E-06
(PID.TID 0000.0001)     ;
(PID.TID 0000.0001) hMixSmooth=  /* Smoothing parameter for mixed-layer diagnostic */
(PID.TID 0000.0001)                 0.000000000000000E+00
(PID.TID 0000.0001)     ;
(PID.TID 0000.0001) eosType =  /* Type of Equation of State */
(PID.TID 0000.0001)               'IDEALG'
(PID.TID 0000.0001)     ;
(PID.TID 0000.0001) surf_pRef = /* Surface reference pressure ( Pa ) */
(PID.TID 0000.0001)                 1.013250000000000E+05
(PID.TID 0000.0001)     ;
(PID.TID 0000.0001) celsius2K = /* 0 degree Celsius converted to Kelvin ( K ) */
(PID.TID 0000.0001)                 2.731600000000000E+02
(PID.TID 0000.0001)     ;
(PID.TID 0000.0001) atm_Rd =    /* gas constant for dry air ( J/kg/K ) */
(PID.TID 0000.0001)                 2.868571428571428E+02
(PID.TID 0000.0001)     ;
(PID.TID 0000.0001) atm_Cp =    /* specific heat (Cp) of dry air ( J/kg/K ) */
(PID.TID 0000.0001)                 1.004000000000000E+03
(PID.TID 0000.0001)     ;
(PID.TID 0000.0001) atm_kappa = /* kappa (=Rd/Cp ) of dry air */
(PID.TID 0000.0001)                 2.857142857142857E-01
(PID.TID 0000.0001)     ;
(PID.TID 0000.0001) atm_Rq =  /* water vap. specific vol. anomaly relative to dry air */
(PID.TID 0000.0001)                 6.078000000000000E-04
(PID.TID 0000.0001)     ;
(PID.TID 0000.0001) atm_Po =    /* standard reference pressure ( Pa ) */
(PID.TID 0000.0001)                 1.000000000000000E+05
(PID.TID 0000.0001)     ;
(PID.TID 0000.0001) thetaConst= /* constant reference for potential temperature ( K ) */
(PID.TID 0000.0001)                 2.896000000000000E+02
(PID.TID 0000.0001)     ;
(PID.TID 0000.0001) integr_GeoPot =  /* select how the geopotential is integrated */
(PID.TID 0000.0001)                       2
(PID.TID 0000.0001)     ;
(PID.TID 0000.0001) selectFindRoSurf=  /* select how Surf.Ref. pressure is defined */
(PID.TID 0000.0001)                       1
(PID.TID 0000.0001)     ;
(PID.TID 0000.0001) rhoConst  = /* Reference density (Boussinesq)  ( kg/m^3 ) */
(PID.TID 0000.0001)                 1.000000000000000E+00
(PID.TID 0000.0001)     ;
(PID.TID 0000.0001) rhoFacC = /* normalized Reference density @ cell-Center (-) */
(PID.TID 0000.0001)     5 @  1.000000000000000E+00              /* K =  1:  5 */
(PID.TID 0000.0001)     ;
(PID.TID 0000.0001) rhoFacF = /* normalized Reference density @ W-Interface (-) */
(PID.TID 0000.0001)     6 @  1.000000000000000E+00              /* K =  1:  6 */
(PID.TID 0000.0001)     ;
(PID.TID 0000.0001) rhoConstFresh = /* Fresh-water reference density ( kg/m^3 ) */
(PID.TID 0000.0001)                 1.000000000000000E+03
(PID.TID 0000.0001)     ;
(PID.TID 0000.0001) gravity =   /* Gravitational acceleration ( m/s^2 ) */
(PID.TID 0000.0001)                 9.810000000000000E+00
(PID.TID 0000.0001)     ;
(PID.TID 0000.0001) gBaro =   /* Barotropic gravity ( m/s^2 ) */
(PID.TID 0000.0001)                 9.810000000000000E+00
(PID.TID 0000.0001)     ;
(PID.TID 0000.0001) gravFacC = /* gravity factor (vs surf.) @ cell-Center (-) */
(PID.TID 0000.0001)     5 @  1.000000000000000E+00              /* K =  1:  5 */
(PID.TID 0000.0001)     ;
(PID.TID 0000.0001) gravFacF = /* gravity factor (vs surf.) @ W-Interface (-) */
(PID.TID 0000.0001)     6 @  1.000000000000000E+00              /* K =  1:  6 */
(PID.TID 0000.0001)     ;
(PID.TID 0000.0001) rotationPeriod =   /* Rotation Period ( s ) */
(PID.TID 0000.0001)                 8.616400000000000E+04
(PID.TID 0000.0001)     ;
(PID.TID 0000.0001) omega =   /* Angular velocity ( rad/s ) */
(PID.TID 0000.0001)                 7.292123516990375E-05
(PID.TID 0000.0001)     ;
(PID.TID 0000.0001) f0 =   /* Reference coriolis parameter ( 1/s ) */
(PID.TID 0000.0001)                 1.000000000000000E-04
(PID.TID 0000.0001)     ;
(PID.TID 0000.0001) beta =   /* Beta ( 1/(m.s) ) */
(PID.TID 0000.0001)                 9.999999999999999E-12
(PID.TID 0000.0001)     ;
(PID.TID 0000.0001) fPrime =   /* Second coriolis parameter ( 1/s ) */
(PID.TID 0000.0001)                 0.000000000000000E+00
(PID.TID 0000.0001)     ;
(PID.TID 0000.0001) rigidLid =   /* Rigid lid on/off flag */
(PID.TID 0000.0001)                   F
(PID.TID 0000.0001)     ;
(PID.TID 0000.0001) implicitFreeSurface =   /* Implicit free surface on/off flag */
(PID.TID 0000.0001)                   T
(PID.TID 0000.0001)     ;
(PID.TID 0000.0001) freeSurfFac =   /* Implicit free surface factor */
(PID.TID 0000.0001)                 1.000000000000000E+00
(PID.TID 0000.0001)     ;
(PID.TID 0000.0001) implicSurfPress =  /* Surface Pressure implicit factor (0-1) */
(PID.TID 0000.0001)                 1.000000000000000E+00
(PID.TID 0000.0001)     ;
(PID.TID 0000.0001) implicDiv2DFlow =  /* Barot. Flow Div. implicit factor (0-1) */
(PID.TID 0000.0001)                 1.000000000000000E+00
(PID.TID 0000.0001)     ;
(PID.TID 0000.0001) uniformLin_PhiSurf = /* use uniform Bo_surf on/off flag */
(PID.TID 0000.0001)                   F
(PID.TID 0000.0001)     ;
(PID.TID 0000.0001) uniformFreeSurfLev = /* free-surface level-index is uniform */
(PID.TID 0000.0001)                   F
(PID.TID 0000.0001)     ;
(PID.TID 0000.0001) sIceLoadFac =  /* scale factor for sIceLoad (0-1) */
(PID.TID 0000.0001)                 1.000000000000000E+00
(PID.TID 0000.0001)     ;
(PID.TID 0000.0001) hFacMin =   /* minimum partial cell factor (hFac) */
(PID.TID 0000.0001)                 1.000000000000000E+00
(PID.TID 0000.0001)     ;
(PID.TID 0000.0001) hFacMinDr = /* minimum partial cell thickness (Pa) */
(PID.TID 0000.0001)                 0.000000000000000E+00
(PID.TID 0000.0001)     ;
(PID.TID 0000.0001) exactConserv =  /* Exact Volume Conservation on/off flag */
(PID.TID 0000.0001)                   T
(PID.TID 0000.0001)     ;
(PID.TID 0000.0001) linFSConserveTr = /* Tracer correction for Lin Free Surface on/off flag */
(PID.TID 0000.0001)                   T
(PID.TID 0000.0001)     ;
(PID.TID 0000.0001) nonlinFreeSurf = /* Non-linear Free Surf. options (-1,0,1,2,3)*/
(PID.TID 0000.0001)                       0
(PID.TID 0000.0001)      -1,0= Off ; 1,2,3= On, 2=+rescale gU,gV, 3=+update cg2d solv.
(PID.TID 0000.0001)     ;
(PID.TID 0000.0001) hFacInf =   /* lower threshold for hFac (nonlinFreeSurf only)*/
(PID.TID 0000.0001)                 2.000000000000000E-01
(PID.TID 0000.0001)     ;
(PID.TID 0000.0001) hFacSup =   /* upper threshold for hFac (nonlinFreeSurf only)*/
(PID.TID 0000.0001)                 2.000000000000000E+00
(PID.TID 0000.0001)     ;
(PID.TID 0000.0001) select_rStar = /* r* Vertical coord. options (=0 r coord.; >0 uses r*)*/
(PID.TID 0000.0001)                       0
(PID.TID 0000.0001)     ;
(PID.TID 0000.0001) useRealFreshWaterFlux = /* Real Fresh Water Flux on/off flag*/
(PID.TID 0000.0001)                   F
(PID.TID 0000.0001)     ;
(PID.TID 0000.0001) temp_EvPrRn = /* Temp. of Evap/Prec/R (UNSET=use local T)(oC)*/
(PID.TID 0000.0001)                 1.234567000000000E+05
(PID.TID 0000.0001)     ;
(PID.TID 0000.0001) salt_EvPrRn = /* Salin. of Evap/Prec/R (UNSET=use local S)(g/kg)*/
(PID.TID 0000.0001)                 0.000000000000000E+00
(PID.TID 0000.0001)     ;
(PID.TID 0000.0001) selectAddFluid = /* option for mass source/sink of fluid (=0: off) */
(PID.TID 0000.0001)                       0
(PID.TID 0000.0001)     ;
(PID.TID 0000.0001) temp_addMass = /* Temp. of addMass array (UNSET=use local T)(oC)*/
(PID.TID 0000.0001)                 1.234567000000000E+05
(PID.TID 0000.0001)     ;
(PID.TID 0000.0001) salt_addMass = /* Salin. of addMass array (UNSET=use local S)(g/kg)*/
(PID.TID 0000.0001)                 0.000000000000000E+00
(PID.TID 0000.0001)     ;
(PID.TID 0000.0001) convertFW2Salt = /* convert F.W. Flux to Salt Flux (-1=use local S)(g/kg)*/
(PID.TID 0000.0001)                 3.500000000000000E+01
(PID.TID 0000.0001)     ;
(PID.TID 0000.0001) use3Dsolver = /* use 3-D pressure solver on/off flag */
(PID.TID 0000.0001)                   T
(PID.TID 0000.0001)     ;
(PID.TID 0000.0001) nonHydrostatic =  /* Non-Hydrostatic on/off flag */
(PID.TID 0000.0001)                   F
(PID.TID 0000.0001)     ;
(PID.TID 0000.0001) nh_Am2 = /* Non-Hydrostatic terms scaling factor */
(PID.TID 0000.0001)                 1.000000000000000E+00
(PID.TID 0000.0001)     ;
(PID.TID 0000.0001) implicitNHPress = /* Non-Hyd Pressure implicit factor (0-1)*/
(PID.TID 0000.0001)                 1.000000000000000E+00
(PID.TID 0000.0001)     ;
(PID.TID 0000.0001) selectNHfreeSurf = /* Non-Hyd (free-)Surface option */
(PID.TID 0000.0001)                       0
(PID.TID 0000.0001)     ;
(PID.TID 0000.0001) quasiHydrostatic = /* Quasi-Hydrostatic on/off flag */
(PID.TID 0000.0001)                   F
(PID.TID 0000.0001)     ;
(PID.TID 0000.0001) calc_wVelocity = /* vertical velocity calculation on/off flag */
(PID.TID 0000.0001)                   T
(PID.TID 0000.0001)     ;
(PID.TID 0000.0001) momStepping =  /* Momentum equation on/off flag */
(PID.TID 0000.0001)                   T
(PID.TID 0000.0001)     ;
(PID.TID 0000.0001) vectorInvariantMomentum= /* Vector-Invariant Momentum on/off */
(PID.TID 0000.0001)                   T
(PID.TID 0000.0001)     ;
(PID.TID 0000.0001) momAdvection =  /* Momentum advection on/off flag */
(PID.TID 0000.0001)                   T
(PID.TID 0000.0001)     ;
(PID.TID 0000.0001) momViscosity =  /* Momentum viscosity on/off flag */
(PID.TID 0000.0001)                   F
(PID.TID 0000.0001)     ;
(PID.TID 0000.0001) momImplVertAdv= /* Momentum implicit vert. advection on/off*/
(PID.TID 0000.0001)                   F
(PID.TID 0000.0001)     ;
(PID.TID 0000.0001) implicitViscosity = /* Implicit viscosity on/off flag */
(PID.TID 0000.0001)                   F
(PID.TID 0000.0001)     ;
(PID.TID 0000.0001) selectImplicitDrag= /* Implicit bot Drag options (0,1,2)*/
(PID.TID 0000.0001)                       0
(PID.TID 0000.0001)     0= Expl. ; 1= Impl. on provis. Vel ; 2= Fully Impl (with surf.P)
(PID.TID 0000.0001)     ;
(PID.TID 0000.0001) metricTerms =  /* metric-Terms on/off flag */
(PID.TID 0000.0001)                   F
(PID.TID 0000.0001)     ;
(PID.TID 0000.0001) useNHMTerms = /* Non-Hydrostatic Metric-Terms on/off */
(PID.TID 0000.0001)                   F
(PID.TID 0000.0001)     ;
(PID.TID 0000.0001) selectCoriMap = /* Coriolis Map options (0,1,2,3)*/
(PID.TID 0000.0001)                       2
(PID.TID 0000.0001)     0= f-Plane ; 1= Beta-Plane ; 2= Spherical ; 3= read from file
(PID.TID 0000.0001)     ;
(PID.TID 0000.0001) use3dCoriolis = /* 3-D Coriolis on/off flag */
(PID.TID 0000.0001)                   F
(PID.TID 0000.0001)     ;
(PID.TID 0000.0001) useCoriolis =  /* Coriolis on/off flag */
(PID.TID 0000.0001)                   T
(PID.TID 0000.0001)     ;
(PID.TID 0000.0001) useCDscheme =  /* CD scheme on/off flag */
(PID.TID 0000.0001)                   F
(PID.TID 0000.0001)     ;
(PID.TID 0000.0001) selectCoriScheme= /* Scheme selector for Coriolis-Term */
(PID.TID 0000.0001)                       0
(PID.TID 0000.0001)    = 0 : original discretization (simple averaging, no hFac)
(PID.TID 0000.0001)    = 1 : Wet-point averaging (Jamar & Ozer 1986)
(PID.TID 0000.0001)    = 2 : hFac weighted average (Angular Mom. conserving)
(PID.TID 0000.0001)    = 3 : energy conserving scheme using hFac weighted average
(PID.TID 0000.0001)     ;
(PID.TID 0000.0001) useAbsVorticity= /* V.I Works with f+zeta in Coriolis */
(PID.TID 0000.0001)                   T
(PID.TID 0000.0001)     ;
(PID.TID 0000.0001) selectVortScheme= /* V.I Scheme selector for Vorticity-Term */
(PID.TID 0000.0001)                       2
(PID.TID 0000.0001)    = 0 : enstrophy (Shallow-Water Eq.) conserving scheme by Sadourny, JAS 75
(PID.TID 0000.0001)    = 1 : same as 0 with modified hFac
(PID.TID 0000.0001)    = 2 : energy conserving scheme (used by Sadourny in JAS 75 paper)
(PID.TID 0000.0001)    = 3 : energy (general) and enstrophy (2D, nonDiv.) conserving scheme
(PID.TID 0000.0001)          from Sadourny (Burridge & Haseler, ECMWF Rep.4, 1977)
(PID.TID 0000.0001)     ;
(PID.TID 0000.0001) useJamartMomAdv= /* V.I Non-linear terms Jamart flag */
(PID.TID 0000.0001)                   F
(PID.TID 0000.0001)     ;
(PID.TID 0000.0001) upwindVorticity= /* V.I Upwind bias vorticity flag */
(PID.TID 0000.0001)                   F
(PID.TID 0000.0001)     ;
(PID.TID 0000.0001) highOrderVorticity= /* V.I High order vort. advect. flag */
(PID.TID 0000.0001)                   F
(PID.TID 0000.0001)     ;
(PID.TID 0000.0001) upwindShear= /* V.I Upwind vertical Shear advection flag */
(PID.TID 0000.0001)                   F
(PID.TID 0000.0001)     ;
(PID.TID 0000.0001) selectKEscheme= /* V.I Kinetic Energy scheme selector */
(PID.TID 0000.0001)                       3
(PID.TID 0000.0001)     ;
(PID.TID 0000.0001) momForcing =  /* Momentum forcing on/off flag */
(PID.TID 0000.0001)                   T
(PID.TID 0000.0001)     ;
(PID.TID 0000.0001) momTidalForcing = /* Momentum Tidal forcing on/off flag */
(PID.TID 0000.0001)                   T
(PID.TID 0000.0001)     ;
(PID.TID 0000.0001) momPressureForcing =  /* Momentum pressure term on/off flag */
(PID.TID 0000.0001)                   T
(PID.TID 0000.0001)     ;
(PID.TID 0000.0001) implicitIntGravWave= /* Implicit Internal Gravity Wave flag */
(PID.TID 0000.0001)                   T
(PID.TID 0000.0001)     ;
(PID.TID 0000.0001) staggerTimeStep =    /* Stagger time stepping on/off flag */
(PID.TID 0000.0001)                   F
(PID.TID 0000.0001)     ;
(PID.TID 0000.0001) doResetHFactors = /* reset thickness factors @ each time-step */
(PID.TID 0000.0001)                   F
(PID.TID 0000.0001)     ;
(PID.TID 0000.0001) multiDimAdvection =  /* enable/disable Multi-Dim Advection */
(PID.TID 0000.0001)                   T
(PID.TID 0000.0001)     ;
(PID.TID 0000.0001) useMultiDimAdvec =   /* Multi-Dim Advection is/is-not used */
(PID.TID 0000.0001)                   F
(PID.TID 0000.0001)     ;
(PID.TID 0000.0001) implicitDiffusion = /* Implicit Diffusion on/off flag */
(PID.TID 0000.0001)                   F
(PID.TID 0000.0001)     ;
(PID.TID 0000.0001) tempStepping =  /* Temperature equation on/off flag */
(PID.TID 0000.0001)                   T
(PID.TID 0000.0001)     ;
(PID.TID 0000.0001) tempAdvection = /* Temperature advection on/off flag */
(PID.TID 0000.0001)                   T
(PID.TID 0000.0001)     ;
(PID.TID 0000.0001) tempImplVertAdv = /* Temp. implicit vert. advection on/off */
(PID.TID 0000.0001)                   F
(PID.TID 0000.0001)     ;
(PID.TID 0000.0001) tempForcing  =  /* Temperature forcing on/off flag */
(PID.TID 0000.0001)                   T
(PID.TID 0000.0001)     ;
(PID.TID 0000.0001) doThetaClimRelax = /* apply SST relaxation on/off flag */
(PID.TID 0000.0001)                   F
(PID.TID 0000.0001)     ;
(PID.TID 0000.0001) tempIsActiveTr = /* Temp. is a dynamically Active Tracer */
(PID.TID 0000.0001)                   T
(PID.TID 0000.0001)     ;
(PID.TID 0000.0001) saltStepping =  /* Salinity equation on/off flag */
(PID.TID 0000.0001)                   T
(PID.TID 0000.0001)     ;
(PID.TID 0000.0001) saltAdvection = /* Salinity advection on/off flag */
(PID.TID 0000.0001)                   T
(PID.TID 0000.0001)     ;
(PID.TID 0000.0001) saltImplVertAdv = /* Sali. implicit vert. advection on/off */
(PID.TID 0000.0001)                   F
(PID.TID 0000.0001)     ;
(PID.TID 0000.0001) saltForcing  =  /* Salinity forcing on/off flag */
(PID.TID 0000.0001)                   T
(PID.TID 0000.0001)     ;
(PID.TID 0000.0001) doSaltClimRelax = /* apply SSS relaxation on/off flag */
(PID.TID 0000.0001)                   F
(PID.TID 0000.0001)     ;
(PID.TID 0000.0001) saltIsActiveTr = /* Salt  is a dynamically Active Tracer */
(PID.TID 0000.0001)                   T
(PID.TID 0000.0001)     ;
(PID.TID 0000.0001)  readBinaryPrec = /* Precision used for reading binary files */
(PID.TID 0000.0001)                      64
(PID.TID 0000.0001)     ;
(PID.TID 0000.0001) writeBinaryPrec = /* Precision used for writing binary files */
(PID.TID 0000.0001)                      64
(PID.TID 0000.0001)     ;
(PID.TID 0000.0001)  rwSuffixType =   /* select format of mds file suffix */
(PID.TID 0000.0001)                       0
(PID.TID 0000.0001)    = 0 : myIter (I10.10) ;   = 1 : 100*myTime (100th sec) ;
(PID.TID 0000.0001)    = 2 : myTime (seconds);   = 3 : myTime/360 (10th of hr);
(PID.TID 0000.0001)    = 4 : myTime/3600 (hours)
(PID.TID 0000.0001)     ;
(PID.TID 0000.0001)  globalFiles = /* write "global" (=not per tile) files */
(PID.TID 0000.0001)                   F
(PID.TID 0000.0001)     ;
(PID.TID 0000.0001)  useSingleCpuIO = /* only master MPI process does I/O */
(PID.TID 0000.0001)                   T
(PID.TID 0000.0001)     ;
(PID.TID 0000.0001)  useSingleCpuInput = /* only master process reads input */
(PID.TID 0000.0001)                   T
(PID.TID 0000.0001)     ;
(PID.TID 0000.0001) /* debLev[*]  : level of debug & auxiliary message printing */
(PID.TID 0000.0001) debLevZero =  0 ; /* level of disabled aux. msg printing */
(PID.TID 0000.0001)    debLevA =  1 ; /* level of minimum  aux. msg printing */
(PID.TID 0000.0001)    debLevB =  2 ; /* level of low aux. print (report read-file opening)*/
(PID.TID 0000.0001)    debLevC =  3 ; /* level of moderate debug prt (most pkgs debug msg) */
(PID.TID 0000.0001)    debLevD =  4 ; /* level of enhanced debug prt (add DEBUG_STATS prt) */
(PID.TID 0000.0001)    debLevE =  5 ; /* level of extensive debug printing */
(PID.TID 0000.0001) debugLevel =  /* select debug printing level */
(PID.TID 0000.0001)                       2
(PID.TID 0000.0001)     ;
(PID.TID 0000.0001)  plotLevel =  /* select PLOT_FIELD printing level */
(PID.TID 0000.0001)                       2
(PID.TID 0000.0001)     ;
(PID.TID 0000.0001) //
(PID.TID 0000.0001) // Elliptic solver(s) paramters ( PARM02 in namelist )
(PID.TID 0000.0001) //
(PID.TID 0000.0001) cg2dMaxIters =   /* Upper limit on 2d con. grad iterations  */
(PID.TID 0000.0001)                     200
(PID.TID 0000.0001)     ;
(PID.TID 0000.0001) cg2dMinItersNSA =   /* Minimum number of iterations of 2d con. grad solver  */
(PID.TID 0000.0001)                       0
(PID.TID 0000.0001)     ;
(PID.TID 0000.0001) cg2dUseMinResSol= /* use cg2d last-iter(=0) / min-resid.(=1) solution */
(PID.TID 0000.0001)                       0
(PID.TID 0000.0001)     ;
(PID.TID 0000.0001) cg2dTargetResidual =   /* 2d con. grad target residual  */
(PID.TID 0000.0001)                 1.000000000000000E-07
(PID.TID 0000.0001)     ;
(PID.TID 0000.0001) cg2dTargetResWunit =   /* CG2d target residual [W units] */
(PID.TID 0000.0001)                 1.000000000000000E-17
(PID.TID 0000.0001)     ;
(PID.TID 0000.0001) cg2dPreCondFreq =   /* Freq. for updating cg2d preconditioner */
(PID.TID 0000.0001)                       1
(PID.TID 0000.0001)     ;
(PID.TID 0000.0001) useSRCGSolver =  /* use single reduction CG solver(s) */
(PID.TID 0000.0001)                   F
(PID.TID 0000.0001)     ;
(PID.TID 0000.0001) useNSACGSolver =  /* use not-self-adjoint CG solver */
(PID.TID 0000.0001)                   F
(PID.TID 0000.0001)     ;
(PID.TID 0000.0001) printResidualFreq = /* Freq. for printing CG residual */
(PID.TID 0000.0001)                       0
(PID.TID 0000.0001)     ;
(PID.TID 0000.0001) //
(PID.TID 0000.0001) // Time stepping paramters ( PARM03 in namelist )
(PID.TID 0000.0001) //
(PID.TID 0000.0001) deltaTMom =   /* Momentum equation timestep ( s ) */
(PID.TID 0000.0001)                 1.200000000000000E+03
(PID.TID 0000.0001)     ;
(PID.TID 0000.0001) deltaTFreeSurf = /* FreeSurface equation timestep ( s ) */
(PID.TID 0000.0001)                 1.200000000000000E+03
(PID.TID 0000.0001)     ;
(PID.TID 0000.0001) dTtracerLev =  /* Tracer equation timestep ( s ) */
(PID.TID 0000.0001)     5 @  1.200000000000000E+03              /* K =  1:  5 */
(PID.TID 0000.0001)     ;
(PID.TID 0000.0001) deltaTClock  =   /* Model clock timestep ( s ) */
(PID.TID 0000.0001)                 1.200000000000000E+03
(PID.TID 0000.0001)     ;
(PID.TID 0000.0001) cAdjFreq =   /* Convective adjustment interval ( s ) */
(PID.TID 0000.0001)                 0.000000000000000E+00
(PID.TID 0000.0001)     ;
(PID.TID 0000.0001) momForcingOutAB = /* =1: take Momentum Forcing out of Adams-Bash. stepping */
(PID.TID 0000.0001)                       0
(PID.TID 0000.0001)     ;
(PID.TID 0000.0001) tracForcingOutAB = /* =1: take T,S,pTr Forcing out of Adams-Bash. stepping */
(PID.TID 0000.0001)                       0
(PID.TID 0000.0001)     ;
(PID.TID 0000.0001) momDissip_In_AB = /* put Dissipation Tendency in Adams-Bash. stepping */
(PID.TID 0000.0001)                   T
(PID.TID 0000.0001)     ;
(PID.TID 0000.0001) doAB_onGtGs = /* apply AB on Tendencies (rather than on T,S)*/
(PID.TID 0000.0001)                   F
(PID.TID 0000.0001)     ;
(PID.TID 0000.0001) abEps =   /* Adams-Bashforth-2 stabilizing weight */
(PID.TID 0000.0001)                 1.000000000000000E-02
(PID.TID 0000.0001)     ;
(PID.TID 0000.0001) alph_AB =   /* Adams-Bashforth-3 primary factor */
(PID.TID 0000.0001)                 5.000000000000000E-01
(PID.TID 0000.0001)     ;
(PID.TID 0000.0001) beta_AB =   /* Adams-Bashforth-3 secondary factor */
(PID.TID 0000.0001)                 2.811050000000000E-01
(PID.TID 0000.0001)     ;
(PID.TID 0000.0001) startFromPickupAB2= /* start from AB-2 pickup */
(PID.TID 0000.0001)                   F
(PID.TID 0000.0001)     ;
(PID.TID 0000.0001) applyExchUV_early = /* Apply EXCH to U,V earlier in time-step */
(PID.TID 0000.0001)                   F
(PID.TID 0000.0001)     ;
(PID.TID 0000.0001) pickupStrictlyMatch= /* stop if pickup do not strictly match */
(PID.TID 0000.0001)                   F
(PID.TID 0000.0001)     ;
(PID.TID 0000.0001) nIter0   =   /* Run starting timestep number */
(PID.TID 0000.0001)               556243200
(PID.TID 0000.0001)     ;
(PID.TID 0000.0001) nTimeSteps = /* Number of timesteps */
(PID.TID 0000.0001)                      30
(PID.TID 0000.0001)     ;
(PID.TID 0000.0001) nEndIter =   /* Run ending timestep number */
(PID.TID 0000.0001)               556243230
(PID.TID 0000.0001)     ;
(PID.TID 0000.0001) baseTime =   /* Model base time ( s ) */
(PID.TID 0000.0001)                 0.000000000000000E+00
(PID.TID 0000.0001)     ;
(PID.TID 0000.0001) startTime =  /* Run start time ( s ) */
(PID.TID 0000.0001)                 6.674918400000000E+11
(PID.TID 0000.0001)     ;
(PID.TID 0000.0001) endTime  =   /* Integration ending time ( s ) */
(PID.TID 0000.0001)                 6.674918760000000E+11
(PID.TID 0000.0001)     ;
(PID.TID 0000.0001) pChkPtFreq = /* Permanent restart/pickup file interval ( s ) */
(PID.TID 0000.0001)                 2.592000000000000E+06
(PID.TID 0000.0001)     ;
(PID.TID 0000.0001) chkPtFreq  = /* Rolling restart/pickup file interval ( s ) */
(PID.TID 0000.0001)                 0.000000000000000E+00
(PID.TID 0000.0001)     ;
(PID.TID 0000.0001) pickup_write_mdsio =   /* Model IO flag. */
(PID.TID 0000.0001)                   T
(PID.TID 0000.0001)     ;
(PID.TID 0000.0001) pickup_read_mdsio =   /* Model IO flag. */
(PID.TID 0000.0001)                   T
(PID.TID 0000.0001)     ;
(PID.TID 0000.0001) writePickupAtEnd =   /* Model IO flag. */
(PID.TID 0000.0001)                   T
(PID.TID 0000.0001)     ;
(PID.TID 0000.0001) dumpFreq =   /* Model state write out interval ( s ). */
(PID.TID 0000.0001)                 0.000000000000000E+00
(PID.TID 0000.0001)     ;
(PID.TID 0000.0001) dumpInitAndLast= /* write out Initial & Last iter. model state */
(PID.TID 0000.0001)                   T
(PID.TID 0000.0001)     ;
(PID.TID 0000.0001) snapshot_mdsio =   /* Model IO flag. */
(PID.TID 0000.0001)                   T
(PID.TID 0000.0001)     ;
(PID.TID 0000.0001) monitorFreq =   /* Monitor output interval ( s ). */
(PID.TID 0000.0001)                 1.200000000000000E+03
(PID.TID 0000.0001)     ;
(PID.TID 0000.0001) monitorSelect = /* select group of variables to monitor */
(PID.TID 0000.0001)                       2
(PID.TID 0000.0001)     ;
(PID.TID 0000.0001) monitor_stdio =   /* Model IO flag. */
(PID.TID 0000.0001)                   T
(PID.TID 0000.0001)     ;
(PID.TID 0000.0001) externForcingPeriod =   /* forcing period (s) */
(PID.TID 0000.0001)                 0.000000000000000E+00
(PID.TID 0000.0001)     ;
(PID.TID 0000.0001) externForcingCycle =   /* period of the cyle (s). */
(PID.TID 0000.0001)                 0.000000000000000E+00
(PID.TID 0000.0001)     ;
(PID.TID 0000.0001) tauThetaClimRelax =   /* relaxation time scale (s) */
(PID.TID 0000.0001)                 0.000000000000000E+00
(PID.TID 0000.0001)     ;
(PID.TID 0000.0001) tauSaltClimRelax =   /* relaxation time scale (s) */
(PID.TID 0000.0001)                 0.000000000000000E+00
(PID.TID 0000.0001)     ;
(PID.TID 0000.0001) latBandClimRelax =   /* max. Lat. where relaxation */
(PID.TID 0000.0001)                 1.800000000000000E+02
(PID.TID 0000.0001)     ;
(PID.TID 0000.0001) //
(PID.TID 0000.0001) // Gridding paramters ( PARM04 in namelist )
(PID.TID 0000.0001) //
(PID.TID 0000.0001) usingCartesianGrid = /* Cartesian coordinates flag ( True/False ) */
(PID.TID 0000.0001)                   F
(PID.TID 0000.0001)     ;
(PID.TID 0000.0001) usingCylindricalGrid = /* Cylindrical coordinates flag ( True/False ) */
(PID.TID 0000.0001)                   F
(PID.TID 0000.0001)     ;
(PID.TID 0000.0001) usingSphericalPolarGrid = /* Spherical coordinates flag ( True/False ) */
(PID.TID 0000.0001)                   F
(PID.TID 0000.0001)     ;
(PID.TID 0000.0001) usingCurvilinearGrid = /* Curvilinear coordinates flag ( True/False ) */
(PID.TID 0000.0001)                   T
(PID.TID 0000.0001)     ;
(PID.TID 0000.0001) useMin4hFacEdges = /* set hFacW,S as minimum of adjacent hFacC factor */
(PID.TID 0000.0001)                   F
(PID.TID 0000.0001)     ;
(PID.TID 0000.0001) interViscAr_pCell = /* account for partial-cell in interior vert. viscosity */
(PID.TID 0000.0001)                   F
(PID.TID 0000.0001)     ;
(PID.TID 0000.0001) interDiffKr_pCell = /* account for partial-cell in interior vert. diffusion */
(PID.TID 0000.0001)                   F
(PID.TID 0000.0001)     ;
(PID.TID 0000.0001) pCellMix_select = /* option to enhance mixing near surface & bottom */
(PID.TID 0000.0001)                       0
(PID.TID 0000.0001)     ;
(PID.TID 0000.0001) selectSigmaCoord = /* Hybrid-Sigma Vert. Coordinate option */
(PID.TID 0000.0001)                       0
(PID.TID 0000.0001)     ;
(PID.TID 0000.0001) rSigmaBnd = /* r/sigma transition ( units of r == Pa ) */
(PID.TID 0000.0001)                 1.234567000000000E+05
(PID.TID 0000.0001)     ;
(PID.TID 0000.0001) rkSign =   /* index orientation relative to vertical coordinate */
(PID.TID 0000.0001)                -1.000000000000000E+00
(PID.TID 0000.0001)     ;
(PID.TID 0000.0001) gravitySign = /* gravity orientation relative to vertical coordinate */
(PID.TID 0000.0001)                 1.000000000000000E+00
(PID.TID 0000.0001)     ;
(PID.TID 0000.0001) seaLev_Z =  /* reference height of sea-level [m] */
(PID.TID 0000.0001)                 0.000000000000000E+00
(PID.TID 0000.0001)     ;
(PID.TID 0000.0001) top_Pres =  /* pressure at the top (r-axis origin) [Pa] */
(PID.TID 0000.0001)                 0.000000000000000E+00
(PID.TID 0000.0001)     ;
(PID.TID 0000.0001) mass2rUnit = /* convert mass per unit area [kg/m2] to r-units [Pa] */
(PID.TID 0000.0001)                 9.810000000000000E+00
(PID.TID 0000.0001)     ;
(PID.TID 0000.0001) rUnit2mass = /* convert r-units [Pa] to mass per unit area [kg/m2] */
(PID.TID 0000.0001)                 1.019367991845056E-01
(PID.TID 0000.0001)     ;
(PID.TID 0000.0001) drC =   /* C spacing ( units of r ) */
(PID.TID 0000.0001)                 5.000000000000000E+03,      /* K =  1 */
(PID.TID 0000.0001)                 1.750000000000000E+04,      /* K =  2 */
(PID.TID 0000.0001)                 2.750000000000000E+04,      /* K =  3 */
(PID.TID 0000.0001)                 2.500000000000000E+04,      /* K =  4 */
(PID.TID 0000.0001)                 1.750000000000000E+04,      /* K =  5 */
(PID.TID 0000.0001)                 7.500000000000000E+03       /* K =  6 */
(PID.TID 0000.0001)     ;
(PID.TID 0000.0001) drF =   /* W spacing ( units of r ) */
(PID.TID 0000.0001)                 1.000000000000000E+04,      /* K =  1 */
(PID.TID 0000.0001)                 2.500000000000000E+04,      /* K =  2 */
(PID.TID 0000.0001)                 3.000000000000000E+04,      /* K =  3 */
(PID.TID 0000.0001)                 2.000000000000000E+04,      /* K =  4 */
(PID.TID 0000.0001)                 1.500000000000000E+04       /* K =  5 */
(PID.TID 0000.0001)     ;
(PID.TID 0000.0001) radius_fromHorizGrid = /* sphere Radius of input horiz. grid */
(PID.TID 0000.0001)                 6.370000000000000E+06
(PID.TID 0000.0001)     ;
(PID.TID 0000.0001) rSphere =  /* Radius ( ignored - cartesian, m - spherical ) */
(PID.TID 0000.0001)                 6.370000000000000E+06
(PID.TID 0000.0001)     ;
(PID.TID 0000.0001) deepAtmosphere = /* Deep/Shallow Atmosphere flag (True/False) */
(PID.TID 0000.0001)                   F
(PID.TID 0000.0001)     ;
(PID.TID 0000.0001) xC =  /* xC(:,1,:,1) : P-point X coord ( deg. or m if cartesian) */
(PID.TID 0000.0001)                -4.415389158859421E+01,      /* I =  1 */
(PID.TID 0000.0001)                -4.202321172190459E+01,      /* I =  2 */
(PID.TID 0000.0001)                -3.945220079733920E+01,      /* I =  3 */
(PID.TID 0000.0001)      . . .
(PID.TID 0000.0001)                 7.776431607819690E+01,      /* I = 34 */
(PID.TID 0000.0001)                 8.259380615606662E+01,      /* I = 35 */
(PID.TID 0000.0001)                 8.752027366591116E+01,      /* I = 36 */
(PID.TID 0000.0001)                 9.247972633408888E+01,      /* I = 37 */
(PID.TID 0000.0001)                 9.740619384393338E+01,      /* I = 38 */
(PID.TID 0000.0001)                 1.022356839218031E+02,      /* I = 39 */
(PID.TID 0000.0001)      . . .
(PID.TID 0000.0001)                 1.308285786920739E+02,      /* I = 70 */
(PID.TID 0000.0001)                 1.332231181571574E+02,      /* I = 71 */
(PID.TID 0000.0001)                 1.350000000000000E+02,      /* I = 72 */
(PID.TID 0000.0001)                 1.358461084114058E+02,      /* I = 73 */
(PID.TID 0000.0001)                 1.362037829590149E+02,      /* I = 74 */
(PID.TID 0000.0001)                 1.363960102586107E+02,      /* I = 75 */
(PID.TID 0000.0001)      . . .
(PID.TID 0000.0001)                -1.332094593843833E+02,      /* I =106 */
(PID.TID 0000.0001)                -1.331989093894726E+02,      /* I =107 */
(PID.TID 0000.0001)                -1.331938734757489E+02,      /* I =108 */
(PID.TID 0000.0001)                -1.331938734757489E+02,      /* I =109 */
(PID.TID 0000.0001)                -1.331989093894725E+02,      /* I =110 */
(PID.TID 0000.0001)                -1.332094593843833E+02,      /* I =111 */
(PID.TID 0000.0001)      . . .
(PID.TID 0000.0001)                 1.391714213079261E+02,      /* I =142 */
(PID.TID 0000.0001)                 1.367768818428426E+02,      /* I =143 */
(PID.TID 0000.0001)                 1.350000000000000E+02       /* I =144 */
(PID.TID 0000.0001)     ;
(PID.TID 0000.0001) yC =  /* yC(1,:,1,:) : P-point Y coord ( deg. or m if cartesian) */
(PID.TID 0000.0001)                -3.486060428076416E+01,      /* J =  1 */
(PID.TID 0000.0001)                -3.304185448565009E+01,      /* J =  2 */
(PID.TID 0000.0001)                -3.079104037309188E+01,      /* J =  3 */
(PID.TID 0000.0001)                -2.822681662567213E+01,      /* J =  4 */
(PID.TID 0000.0001)                -2.541691746052549E+01,      /* J =  5 */
(PID.TID 0000.0001)                -2.240593168551424E+01,      /* J =  6 */
(PID.TID 0000.0001)                -1.922840671896352E+01,      /* J =  7 */
(PID.TID 0000.0001)                -1.591437511670302E+01,      /* J =  8 */
(PID.TID 0000.0001)                -1.249038227468350E+01,      /* J =  9 */
(PID.TID 0000.0001)                -8.981829992864316E+00,      /* J = 10 */
(PID.TID 0000.0001)                -5.413088921775463E+00,      /* J = 11 */
(PID.TID 0000.0001)                -1.808353097728801E+00,      /* J = 12 */
(PID.TID 0000.0001)                 1.808353097728819E+00,      /* J = 13 */
(PID.TID 0000.0001)                 5.413088921775473E+00,      /* J = 14 */
(PID.TID 0000.0001)                 8.981829992864329E+00,      /* J = 15 */
(PID.TID 0000.0001)                 1.249038227468350E+01,      /* J = 16 */
(PID.TID 0000.0001)                 1.591437511670303E+01,      /* J = 17 */
(PID.TID 0000.0001)                 1.922840671896353E+01,      /* J = 18 */
(PID.TID 0000.0001)                 2.240593168551424E+01,      /* J = 19 */
(PID.TID 0000.0001)                 2.541691746052550E+01,      /* J = 20 */
(PID.TID 0000.0001)                 2.822681662567215E+01,      /* J = 21 */
(PID.TID 0000.0001)                 3.079104037309189E+01,      /* J = 22 */
(PID.TID 0000.0001)                 3.304185448565009E+01,      /* J = 23 */
(PID.TID 0000.0001)                 3.486060428076415E+01       /* J = 24 */
(PID.TID 0000.0001)     ;
(PID.TID 0000.0001) rcoord = /* P-point R coordinate (  units of r ) */
(PID.TID 0000.0001)                 9.500000000000000E+04,      /* K =  1 */
(PID.TID 0000.0001)                 7.750000000000000E+04,      /* K =  2 */
(PID.TID 0000.0001)                 5.000000000000000E+04,      /* K =  3 */
(PID.TID 0000.0001)                 2.500000000000000E+04,      /* K =  4 */
(PID.TID 0000.0001)                 7.500000000000000E+03       /* K =  5 */
(PID.TID 0000.0001)     ;
(PID.TID 0000.0001) rF =   /* W-Interf. R coordinate (  units of r ) */
(PID.TID 0000.0001)                 1.000000000000000E+05,      /* K =  1 */
(PID.TID 0000.0001)                 9.000000000000000E+04,      /* K =  2 */
(PID.TID 0000.0001)                 6.500000000000000E+04,      /* K =  3 */
(PID.TID 0000.0001)                 3.500000000000000E+04,      /* K =  4 */
(PID.TID 0000.0001)                 1.500000000000000E+04,      /* K =  5 */
(PID.TID 0000.0001)                 0.000000000000000E+00       /* K =  6 */
(PID.TID 0000.0001)     ;
(PID.TID 0000.0001) deepFacC = /* deep-model grid factor @ cell-Center (-) */
(PID.TID 0000.0001)     5 @  1.000000000000000E+00              /* K =  1:  5 */
(PID.TID 0000.0001)     ;
(PID.TID 0000.0001) deepFacF = /* deep-model grid factor @ W-Interface (-) */
(PID.TID 0000.0001)     6 @  1.000000000000000E+00              /* K =  1:  6 */
(PID.TID 0000.0001)     ;
(PID.TID 0000.0001) rVel2wUnit = /* convert units: rVel -> wSpeed (=1 if z-coord)*/
(PID.TID 0000.0001)                 8.468280180573759E-02,      /* K =  1 */
(PID.TID 0000.0001)                 9.264164924838553E-02,      /* K =  2 */
(PID.TID 0000.0001)                 1.218363765768670E-01,      /* K =  3 */
(PID.TID 0000.0001)                 2.012547327065781E-01,      /* K =  4 */
(PID.TID 0000.0001)                 4.382932217562046E-01,      /* K =  5 */
(PID.TID 0000.0001)                 1.000000000000000E+00       /* K =  6 */
(PID.TID 0000.0001)     ;
(PID.TID 0000.0001) wUnit2rVel = /* convert units: wSpeed -> rVel (=1 if z-coord)*/
(PID.TID 0000.0001)                 1.180877319451476E+01,      /* K =  1 */
(PID.TID 0000.0001)                 1.079428106162982E+01,      /* K =  2 */
(PID.TID 0000.0001)                 8.207729317763288E+00,      /* K =  3 */
(PID.TID 0000.0001)                 4.968827249682435E+00,      /* K =  4 */
(PID.TID 0000.0001)                 2.281577606865748E+00,      /* K =  5 */
(PID.TID 0000.0001)                 1.000000000000000E+00       /* K =  6 */
(PID.TID 0000.0001)     ;
(PID.TID 0000.0001) dBdrRef = /* Vertical grad. of reference buoyancy [(m/s/r)^2] */
(PID.TID 0000.0001)                 0.000000000000000E+00,      /* K =  1 */
(PID.TID 0000.0001)                 1.551846956946958E-06,      /* K =  2 */
(PID.TID 0000.0001)                 2.382518577942705E-06,      /* K =  3 */
(PID.TID 0000.0001)                 5.042981208886097E-06,      /* K =  4 */
(PID.TID 0000.0001)                 6.524166098263503E-05       /* K =  5 */
(PID.TID 0000.0001)     ;
(PID.TID 0000.0001) rotateGrid = /* use rotated grid ( True/False ) */
(PID.TID 0000.0001)                   F
(PID.TID 0000.0001)     ;
(PID.TID 0000.0001) phiEuler = /* Euler angle, rotation about original z-coordinate [rad] */
(PID.TID 0000.0001)                 0.000000000000000E+00
(PID.TID 0000.0001)     ;
(PID.TID 0000.0001) thetaEuler = /* Euler angle, rotation about new x-coordinate [rad] */
(PID.TID 0000.0001)                 0.000000000000000E+00
(PID.TID 0000.0001)     ;
(PID.TID 0000.0001) psiEuler = /* Euler angle, rotation about new z-coordinate [rad] */
(PID.TID 0000.0001)                 0.000000000000000E+00
(PID.TID 0000.0001)     ;
(PID.TID 0000.0001) dxF =  /* dxF(:,1,:,1) ( units: m ) */
(PID.TID 0000.0001)                 1.730605259403662E+05,      /* I =  1 */
(PID.TID 0000.0001)                 2.305559745418336E+05,      /* I =  2 */
(PID.TID 0000.0001)                 2.689553525596760E+05,      /* I =  3 */
(PID.TID 0000.0001)      . . .
(PID.TID 0000.0001)                 3.937715164123765E+05,      /* I = 34 */
(PID.TID 0000.0001)                 3.990925544639163E+05,      /* I = 35 */
(PID.TID 0000.0001)                 4.017674622183833E+05,      /* I = 36 */
(PID.TID 0000.0001)                 4.017674622183833E+05,      /* I = 37 */
(PID.TID 0000.0001)                 3.990925544639162E+05,      /* I = 38 */
(PID.TID 0000.0001)                 3.937715164123765E+05,      /* I = 39 */
(PID.TID 0000.0001)      . . .
(PID.TID 0000.0001)                 2.689553525596760E+05,      /* I = 70 */
(PID.TID 0000.0001)                 2.305559745418336E+05,      /* I = 71 */
(PID.TID 0000.0001)                 1.730605259403663E+05,      /* I = 72 */
(PID.TID 0000.0001)                 1.730605259403662E+05,      /* I = 73 */
(PID.TID 0000.0001)                 2.305559745418336E+05,      /* I = 74 */
(PID.TID 0000.0001)                 2.689553525596760E+05,      /* I = 75 */
(PID.TID 0000.0001)      . . .
(PID.TID 0000.0001)                 3.937715164123765E+05,      /* I =106 */
(PID.TID 0000.0001)                 3.990925544639163E+05,      /* I =107 */
(PID.TID 0000.0001)                 4.017674622183833E+05,      /* I =108 */
(PID.TID 0000.0001)                 4.017674622183833E+05,      /* I =109 */
(PID.TID 0000.0001)                 3.990925544639162E+05,      /* I =110 */
(PID.TID 0000.0001)                 3.937715164123765E+05,      /* I =111 */
(PID.TID 0000.0001)      . . .
(PID.TID 0000.0001)                 2.689553525596760E+05,      /* I =142 */
(PID.TID 0000.0001)                 2.305559745418336E+05,      /* I =143 */
(PID.TID 0000.0001)                 1.730605259403663E+05       /* I =144 */
(PID.TID 0000.0001)     ;
(PID.TID 0000.0001) dxF =  /* dxF(1,:,1,:) ( units: m ) */
(PID.TID 0000.0001)                 1.730605259403662E+05,      /* J =  1 */
(PID.TID 0000.0001)                 2.290253111905513E+05,      /* J =  2 */
(PID.TID 0000.0001)                 2.685885976308528E+05,      /* J =  3 */
(PID.TID 0000.0001)                 2.989312700707331E+05,      /* J =  4 */
(PID.TID 0000.0001)                 3.234923273214143E+05,      /* J =  5 */
(PID.TID 0000.0001)                 3.437877062918490E+05,      /* J =  6 */
(PID.TID 0000.0001)                 3.606698694876578E+05,      /* J =  7 */
(PID.TID 0000.0001)                 3.744366791307096E+05,      /* J =  8 */
(PID.TID 0000.0001)                 3.853383613351046E+05,      /* J =  9 */
(PID.TID 0000.0001)                 3.934701174572747E+05,      /* J = 10 */
(PID.TID 0000.0001)                 3.988465719120836E+05,      /* J = 11 */
(PID.TID 0000.0001)     2 @  4.015742495207468E+05,             /* J = 12: 13 */
(PID.TID 0000.0001)                 3.988465719120835E+05,      /* J = 14 */
(PID.TID 0000.0001)                 3.934701174572747E+05,      /* J = 15 */
(PID.TID 0000.0001)                 3.853383613351046E+05,      /* J = 16 */
(PID.TID 0000.0001)                 3.744366791307096E+05,      /* J = 17 */
(PID.TID 0000.0001)                 3.606698694876578E+05,      /* J = 18 */
(PID.TID 0000.0001)                 3.437877062918490E+05,      /* J = 19 */
(PID.TID 0000.0001)                 3.234923273214143E+05,      /* J = 20 */
(PID.TID 0000.0001)                 2.989312700707331E+05,      /* J = 21 */
(PID.TID 0000.0001)                 2.685885976308528E+05,      /* J = 22 */
(PID.TID 0000.0001)                 2.290253111905513E+05,      /* J = 23 */
(PID.TID 0000.0001)                 1.730605259403663E+05       /* J = 24 */
(PID.TID 0000.0001)     ;
(PID.TID 0000.0001) dyF =  /* dyF(:,1,:,1) ( units: m ) */
(PID.TID 0000.0001)                 1.730605259403662E+05,      /* I =  1 */
(PID.TID 0000.0001)                 2.290253111905513E+05,      /* I =  2 */
(PID.TID 0000.0001)                 2.685885976308528E+05,      /* I =  3 */
(PID.TID 0000.0001)      . . .
(PID.TID 0000.0001)                 3.934701174572747E+05,      /* I = 34 */
(PID.TID 0000.0001)                 3.988465719120836E+05,      /* I = 35 */
(PID.TID 0000.0001)                 4.015742495207468E+05,      /* I = 36 */
(PID.TID 0000.0001)                 4.015742495207468E+05,      /* I = 37 */
(PID.TID 0000.0001)                 3.988465719120835E+05,      /* I = 38 */
(PID.TID 0000.0001)                 3.934701174572747E+05,      /* I = 39 */
(PID.TID 0000.0001)      . . .
(PID.TID 0000.0001)                 2.685885976308528E+05,      /* I = 70 */
(PID.TID 0000.0001)                 2.290253111905513E+05,      /* I = 71 */
(PID.TID 0000.0001)                 1.730605259403663E+05,      /* I = 72 */
(PID.TID 0000.0001)                 1.730605259403662E+05,      /* I = 73 */
(PID.TID 0000.0001)                 2.290253111905513E+05,      /* I = 74 */
(PID.TID 0000.0001)                 2.685885976308528E+05,      /* I = 75 */
(PID.TID 0000.0001)      . . .
(PID.TID 0000.0001)                 3.934701174572747E+05,      /* I =106 */
(PID.TID 0000.0001)                 3.988465719120836E+05,      /* I =107 */
(PID.TID 0000.0001)                 4.015742495207468E+05,      /* I =108 */
(PID.TID 0000.0001)                 4.015742495207468E+05,      /* I =109 */
(PID.TID 0000.0001)                 3.988465719120835E+05,      /* I =110 */
(PID.TID 0000.0001)                 3.934701174572747E+05,      /* I =111 */
(PID.TID 0000.0001)      . . .
(PID.TID 0000.0001)                 2.685885976308528E+05,      /* I =142 */
(PID.TID 0000.0001)                 2.290253111905513E+05,      /* I =143 */
(PID.TID 0000.0001)                 1.730605259403663E+05       /* I =144 */
(PID.TID 0000.0001)     ;
(PID.TID 0000.0001) dyF =  /* dyF(1,:,1,:) ( units: m ) */
(PID.TID 0000.0001)                 1.730605259403662E+05,      /* J =  1 */
(PID.TID 0000.0001)                 2.305559745418336E+05,      /* J =  2 */
(PID.TID 0000.0001)                 2.689553525596760E+05,      /* J =  3 */
(PID.TID 0000.0001)                 2.996512796679714E+05,      /* J =  4 */
(PID.TID 0000.0001)                 3.242083370328164E+05,      /* J =  5 */
(PID.TID 0000.0001)                 3.444586831238133E+05,      /* J =  6 */
(PID.TID 0000.0001)                 3.612859484180047E+05,      /* J =  7 */
(PID.TID 0000.0001)                 3.749303256564948E+05,      /* J =  8 */
(PID.TID 0000.0001)                 3.857244203555482E+05,      /* J =  9 */
(PID.TID 0000.0001)                 3.937715164123765E+05,      /* J = 10 */
(PID.TID 0000.0001)                 3.990925544639163E+05,      /* J = 11 */
(PID.TID 0000.0001)     2 @  4.017674622183833E+05,             /* J = 12: 13 */
(PID.TID 0000.0001)                 3.990925544639162E+05,      /* J = 14 */
(PID.TID 0000.0001)                 3.937715164123765E+05,      /* J = 15 */
(PID.TID 0000.0001)                 3.857244203555482E+05,      /* J = 16 */
(PID.TID 0000.0001)                 3.749303256564948E+05,      /* J = 17 */
(PID.TID 0000.0001)                 3.612859484180047E+05,      /* J = 18 */
(PID.TID 0000.0001)                 3.444586831238133E+05,      /* J = 19 */
(PID.TID 0000.0001)                 3.242083370328164E+05,      /* J = 20 */
(PID.TID 0000.0001)                 2.996512796679714E+05,      /* J = 21 */
(PID.TID 0000.0001)                 2.689553525596760E+05,      /* J = 22 */
(PID.TID 0000.0001)                 2.305559745418336E+05,      /* J = 23 */
(PID.TID 0000.0001)                 1.730605259403663E+05       /* J = 24 */
(PID.TID 0000.0001)     ;
(PID.TID 0000.0001) dxG =  /* dxG(:,1,:,1) ( units: m ) */
(PID.TID 0000.0001)                 1.451825473793826E+05,      /* I =  1 */
(PID.TID 0000.0001)                 2.263713942765605E+05,      /* I =  2 */
(PID.TID 0000.0001)                 2.677552712127340E+05,      /* I =  3 */
(PID.TID 0000.0001)      . . .
(PID.TID 0000.0001)                 3.934567971173259E+05,      /* I = 34 */
(PID.TID 0000.0001)                 3.988026331294687E+05,      /* I = 35 */
(PID.TID 0000.0001)                 4.014680116057578E+05,      /* I = 36 */
(PID.TID 0000.0001)                 4.014680116057578E+05,      /* I = 37 */
(PID.TID 0000.0001)                 3.988026331294686E+05,      /* I = 38 */
(PID.TID 0000.0001)                 3.934567971173259E+05,      /* I = 39 */
(PID.TID 0000.0001)      . . .
(PID.TID 0000.0001)                 2.677552712127340E+05,      /* I = 70 */
(PID.TID 0000.0001)                 2.263713942765605E+05,      /* I = 71 */
(PID.TID 0000.0001)                 1.451825473793826E+05,      /* I = 72 */
(PID.TID 0000.0001)                 1.451825473793826E+05,      /* I = 73 */
(PID.TID 0000.0001)                 2.263713942765605E+05,      /* I = 74 */
(PID.TID 0000.0001)                 2.677552712127340E+05,      /* I = 75 */
(PID.TID 0000.0001)      . . .
(PID.TID 0000.0001)                 3.934567971173259E+05,      /* I =106 */
(PID.TID 0000.0001)                 3.988026331294687E+05,      /* I =107 */
(PID.TID 0000.0001)                 4.014680116057578E+05,      /* I =108 */
(PID.TID 0000.0001)                 4.014680116057578E+05,      /* I =109 */
(PID.TID 0000.0001)                 3.988026331294686E+05,      /* I =110 */
(PID.TID 0000.0001)                 3.934567971173259E+05,      /* I =111 */
(PID.TID 0000.0001)      . . .
(PID.TID 0000.0001)                 2.677552712127340E+05,      /* I =142 */
(PID.TID 0000.0001)                 2.263713942765605E+05,      /* I =143 */
(PID.TID 0000.0001)                 1.451825473793826E+05       /* I =144 */
(PID.TID 0000.0001)     ;
(PID.TID 0000.0001) dxG =  /* dxG(1,:,1,:) ( units: m ) */
(PID.TID 0000.0001)                 1.451825473793826E+05,      /* J =  1 */
(PID.TID 0000.0001)                 2.035754687309966E+05,      /* J =  2 */
(PID.TID 0000.0001)                 2.502174618902466E+05,      /* J =  3 */
(PID.TID 0000.0001)                 2.845970839913985E+05,      /* J =  4 */
(PID.TID 0000.0001)                 3.118088502320059E+05,      /* J =  5 */
(PID.TID 0000.0001)                 3.341162461904549E+05,      /* J =  6 */
(PID.TID 0000.0001)                 3.526377433471617E+05,      /* J =  7 */
(PID.TID 0000.0001)                 3.678791183905560E+05,      /* J =  8 */
(PID.TID 0000.0001)                 3.802036634449060E+05,      /* J =  9 */
(PID.TID 0000.0001)                 3.897005894057774E+05,      /* J = 10 */
(PID.TID 0000.0001)                 3.964976944694623E+05,      /* J = 11 */
(PID.TID 0000.0001)                 4.005720806523124E+05,      /* J = 12 */
(PID.TID 0000.0001)                 4.018816730177203E+05,      /* J = 13 */
(PID.TID 0000.0001)                 4.005720806523124E+05,      /* J = 14 */
(PID.TID 0000.0001)                 3.964976944694623E+05,      /* J = 15 */
(PID.TID 0000.0001)                 3.897005894057774E+05,      /* J = 16 */
(PID.TID 0000.0001)                 3.802036634449060E+05,      /* J = 17 */
(PID.TID 0000.0001)                 3.678791183905560E+05,      /* J = 18 */
(PID.TID 0000.0001)                 3.526377433471617E+05,      /* J = 19 */
(PID.TID 0000.0001)                 3.341162461904549E+05,      /* J = 20 */
(PID.TID 0000.0001)                 3.118088502320059E+05,      /* J = 21 */
(PID.TID 0000.0001)                 2.845970839913985E+05,      /* J = 22 */
(PID.TID 0000.0001)                 2.502174618902466E+05,      /* J = 23 */
(PID.TID 0000.0001)                 2.035754687309966E+05       /* J = 24 */
(PID.TID 0000.0001)     ;
(PID.TID 0000.0001) dyG =  /* dyG(:,1,:,1) ( units: m ) */
(PID.TID 0000.0001)                 1.451825473793826E+05,      /* I =  1 */
(PID.TID 0000.0001)                 2.035754687309966E+05,      /* I =  2 */
(PID.TID 0000.0001)                 2.502174618902466E+05,      /* I =  3 */
(PID.TID 0000.0001)      . . .
(PID.TID 0000.0001)                 3.897005894057774E+05,      /* I = 34 */
(PID.TID 0000.0001)                 3.964976944694623E+05,      /* I = 35 */
(PID.TID 0000.0001)                 4.005720806523124E+05,      /* I = 36 */
(PID.TID 0000.0001)                 4.018816730177203E+05,      /* I = 37 */
(PID.TID 0000.0001)                 4.005720806523124E+05,      /* I = 38 */
(PID.TID 0000.0001)                 3.964976944694623E+05,      /* I = 39 */
(PID.TID 0000.0001)      . . .
(PID.TID 0000.0001)                 2.845970839913985E+05,      /* I = 70 */
(PID.TID 0000.0001)                 2.502174618902466E+05,      /* I = 71 */
(PID.TID 0000.0001)                 2.035754687309966E+05,      /* I = 72 */
(PID.TID 0000.0001)                 1.451825473793826E+05,      /* I = 73 */
(PID.TID 0000.0001)                 2.035754687309966E+05,      /* I = 74 */
(PID.TID 0000.0001)                 2.502174618902466E+05,      /* I = 75 */
(PID.TID 0000.0001)      . . .
(PID.TID 0000.0001)                 3.897005894057774E+05,      /* I =106 */
(PID.TID 0000.0001)                 3.964976944694623E+05,      /* I =107 */
(PID.TID 0000.0001)                 4.005720806523124E+05,      /* I =108 */
(PID.TID 0000.0001)                 4.018816730177203E+05,      /* I =109 */
(PID.TID 0000.0001)                 4.005720806523124E+05,      /* I =110 */
(PID.TID 0000.0001)                 3.964976944694623E+05,      /* I =111 */
(PID.TID 0000.0001)      . . .
(PID.TID 0000.0001)                 2.845970839913985E+05,      /* I =142 */
(PID.TID 0000.0001)                 2.502174618902466E+05,      /* I =143 */
(PID.TID 0000.0001)                 2.035754687309966E+05       /* I =144 */
(PID.TID 0000.0001)     ;
(PID.TID 0000.0001) dyG =  /* dyG(1,:,1,:) ( units: m ) */
(PID.TID 0000.0001)                 1.451825473793826E+05,      /* J =  1 */
(PID.TID 0000.0001)                 2.263713942765605E+05,      /* J =  2 */
(PID.TID 0000.0001)                 2.677552712127340E+05,      /* J =  3 */
(PID.TID 0000.0001)                 2.988620373324543E+05,      /* J =  4 */
(PID.TID 0000.0001)                 3.236805828446414E+05,      /* J =  5 */
(PID.TID 0000.0001)                 3.440774248761908E+05,      /* J =  6 */
(PID.TID 0000.0001)                 3.609071569497766E+05,      /* J =  7 */
(PID.TID 0000.0001)                 3.746232998453116E+05,      /* J =  8 */
(PID.TID 0000.0001)                 3.854185876600230E+05,      /* J =  9 */
(PID.TID 0000.0001)                 3.934567971173259E+05,      /* J = 10 */
(PID.TID 0000.0001)                 3.988026331294687E+05,      /* J = 11 */
(PID.TID 0000.0001)     2 @  4.014680116057578E+05,             /* J = 12: 13 */
(PID.TID 0000.0001)                 3.988026331294686E+05,      /* J = 14 */
(PID.TID 0000.0001)                 3.934567971173259E+05,      /* J = 15 */
(PID.TID 0000.0001)                 3.854185876600229E+05,      /* J = 16 */
(PID.TID 0000.0001)                 3.746232998453116E+05,      /* J = 17 */
(PID.TID 0000.0001)                 3.609071569497766E+05,      /* J = 18 */
(PID.TID 0000.0001)                 3.440774248761908E+05,      /* J = 19 */
(PID.TID 0000.0001)                 3.236805828446414E+05,      /* J = 20 */
(PID.TID 0000.0001)                 2.988620373324543E+05,      /* J = 21 */
(PID.TID 0000.0001)                 2.677552712127340E+05,      /* J = 22 */
(PID.TID 0000.0001)                 2.263713942765605E+05,      /* J = 23 */
(PID.TID 0000.0001)                 1.451825473793826E+05       /* J = 24 */
(PID.TID 0000.0001)     ;
(PID.TID 0000.0001) dxC =  /* dxC(:,1,:,1) ( units: m ) */
(PID.TID 0000.0001)                 1.554406436806963E+05,      /* I =  1 */
(PID.TID 0000.0001)                 2.050577168035814E+05,      /* I =  2 */
(PID.TID 0000.0001)                 2.509117970055231E+05,      /* I =  3 */
(PID.TID 0000.0001)      . . .
(PID.TID 0000.0001)                 3.900764753900591E+05,      /* I = 34 */
(PID.TID 0000.0001)                 3.967653331586427E+05,      /* I = 35 */
(PID.TID 0000.0001)                 4.007658562399705E+05,      /* I = 36 */
(PID.TID 0000.0001)                 4.020962666419666E+05,      /* I = 37 */
(PID.TID 0000.0001)                 4.007658562399705E+05,      /* I = 38 */
(PID.TID 0000.0001)                 3.967653331586428E+05,      /* I = 39 */
(PID.TID 0000.0001)      . . .
(PID.TID 0000.0001)                 2.853398808493375E+05,      /* I = 70 */
(PID.TID 0000.0001)                 2.509117970055231E+05,      /* I = 71 */
(PID.TID 0000.0001)                 2.050577168035814E+05,      /* I = 72 */
(PID.TID 0000.0001)                 1.554406436806963E+05,      /* I = 73 */
(PID.TID 0000.0001)                 2.050577168035814E+05,      /* I = 74 */
(PID.TID 0000.0001)                 2.509117970055231E+05,      /* I = 75 */
(PID.TID 0000.0001)      . . .
(PID.TID 0000.0001)                 3.900764753900591E+05,      /* I =106 */
(PID.TID 0000.0001)                 3.967653331586427E+05,      /* I =107 */
(PID.TID 0000.0001)                 4.007658562399705E+05,      /* I =108 */
(PID.TID 0000.0001)                 4.020962666419666E+05,      /* I =109 */
(PID.TID 0000.0001)                 4.007658562399705E+05,      /* I =110 */
(PID.TID 0000.0001)                 3.967653331586428E+05,      /* I =111 */
(PID.TID 0000.0001)      . . .
(PID.TID 0000.0001)                 2.853398808493375E+05,      /* I =142 */
(PID.TID 0000.0001)                 2.509117970055231E+05,      /* I =143 */
(PID.TID 0000.0001)                 2.050577168035814E+05       /* I =144 */
(PID.TID 0000.0001)     ;
(PID.TID 0000.0001) dxC =  /* dxC(1,:,1,:) ( units: m ) */
(PID.TID 0000.0001)                 1.554406436806963E+05,      /* J =  1 */
(PID.TID 0000.0001)                 2.246708397179116E+05,      /* J =  2 */
(PID.TID 0000.0001)                 2.667952569068315E+05,      /* J =  3 */
(PID.TID 0000.0001)                 2.979171113176555E+05,      /* J =  4 */
(PID.TID 0000.0001)                 3.228043396962269E+05,      /* J =  5 */
(PID.TID 0000.0001)                 3.433397998559853E+05,      /* J =  6 */
(PID.TID 0000.0001)                 3.602499227648063E+05,      /* J =  7 */
(PID.TID 0000.0001)                 3.741116665013155E+05,      /* J =  8 */
(PID.TID 0000.0001)                 3.850316217746211E+05,      /* J =  9 */
(PID.TID 0000.0001)                 3.932596548119390E+05,      /* J = 10 */
(PID.TID 0000.0001)                 3.986975592394565E+05,      /* J = 11 */
(PID.TID 0000.0001)     2 @  4.014013988536997E+05,             /* J = 12: 13 */
(PID.TID 0000.0001)                 3.986975592394565E+05,      /* J = 14 */
(PID.TID 0000.0001)                 3.932596548119390E+05,      /* J = 15 */
(PID.TID 0000.0001)                 3.850316217746211E+05,      /* J = 16 */
(PID.TID 0000.0001)                 3.741116665013155E+05,      /* J = 17 */
(PID.TID 0000.0001)                 3.602499227648062E+05,      /* J = 18 */
(PID.TID 0000.0001)                 3.433397998559853E+05,      /* J = 19 */
(PID.TID 0000.0001)                 3.228043396962269E+05,      /* J = 20 */
(PID.TID 0000.0001)                 2.979171113176555E+05,      /* J = 21 */
(PID.TID 0000.0001)                 2.667952569068315E+05,      /* J = 22 */
(PID.TID 0000.0001)                 2.246708397179116E+05,      /* J = 23 */
(PID.TID 0000.0001)                 1.554406436806963E+05       /* J = 24 */
(PID.TID 0000.0001)     ;
(PID.TID 0000.0001) dyC =  /* dyC(:,1,:,1) ( units: m ) */
(PID.TID 0000.0001)                 1.554406436806963E+05,      /* I =  1 */
(PID.TID 0000.0001)                 2.246708397179116E+05,      /* I =  2 */
(PID.TID 0000.0001)                 2.667952569068315E+05,      /* I =  3 */
(PID.TID 0000.0001)      . . .
(PID.TID 0000.0001)                 3.932596548119390E+05,      /* I = 34 */
(PID.TID 0000.0001)                 3.986975592394565E+05,      /* I = 35 */
(PID.TID 0000.0001)                 4.014013988536997E+05,      /* I = 36 */
(PID.TID 0000.0001)                 4.014013988536997E+05,      /* I = 37 */
(PID.TID 0000.0001)                 3.986975592394565E+05,      /* I = 38 */
(PID.TID 0000.0001)                 3.932596548119390E+05,      /* I = 39 */
(PID.TID 0000.0001)      . . .
(PID.TID 0000.0001)                 2.667952569068315E+05,      /* I = 70 */
(PID.TID 0000.0001)                 2.246708397179116E+05,      /* I = 71 */
(PID.TID 0000.0001)                 1.554406436806963E+05,      /* I = 72 */
(PID.TID 0000.0001)                 1.554406436806963E+05,      /* I = 73 */
(PID.TID 0000.0001)                 2.246708397179116E+05,      /* I = 74 */
(PID.TID 0000.0001)                 2.667952569068315E+05,      /* I = 75 */
(PID.TID 0000.0001)      . . .
(PID.TID 0000.0001)                 3.932596548119390E+05,      /* I =106 */
(PID.TID 0000.0001)                 3.986975592394565E+05,      /* I =107 */
(PID.TID 0000.0001)                 4.014013988536997E+05,      /* I =108 */
(PID.TID 0000.0001)                 4.014013988536997E+05,      /* I =109 */
(PID.TID 0000.0001)                 3.986975592394565E+05,      /* I =110 */
(PID.TID 0000.0001)                 3.932596548119390E+05,      /* I =111 */
(PID.TID 0000.0001)      . . .
(PID.TID 0000.0001)                 2.667952569068315E+05,      /* I =142 */
(PID.TID 0000.0001)                 2.246708397179116E+05,      /* I =143 */
(PID.TID 0000.0001)                 1.554406436806963E+05       /* I =144 */
(PID.TID 0000.0001)     ;
(PID.TID 0000.0001) dyC =  /* dyC(1,:,1,:) ( units: m ) */
(PID.TID 0000.0001)                 1.554406436806963E+05,      /* J =  1 */
(PID.TID 0000.0001)                 2.050577168035814E+05,      /* J =  2 */
(PID.TID 0000.0001)                 2.509117970055231E+05,      /* J =  3 */
(PID.TID 0000.0001)                 2.853398808493375E+05,      /* J =  4 */
(PID.TID 0000.0001)                 3.125171759384927E+05,      /* J =  5 */
(PID.TID 0000.0001)                 3.348152821728783E+05,      /* J =  6 */
(PID.TID 0000.0001)                 3.533014521570507E+05,      /* J =  7 */
(PID.TID 0000.0001)                 3.684631395467056E+05,      /* J =  8 */
(PID.TID 0000.0001)                 3.806798159676279E+05,      /* J =  9 */
(PID.TID 0000.0001)                 3.900764753900591E+05,      /* J = 10 */
(PID.TID 0000.0001)                 3.967653331586427E+05,      /* J = 11 */
(PID.TID 0000.0001)                 4.007658562399705E+05,      /* J = 12 */
(PID.TID 0000.0001)                 4.020962666419666E+05,      /* J = 13 */
(PID.TID 0000.0001)                 4.007658562399705E+05,      /* J = 14 */
(PID.TID 0000.0001)                 3.967653331586428E+05,      /* J = 15 */
(PID.TID 0000.0001)                 3.900764753900591E+05,      /* J = 16 */
(PID.TID 0000.0001)                 3.806798159676280E+05,      /* J = 17 */
(PID.TID 0000.0001)                 3.684631395467056E+05,      /* J = 18 */
(PID.TID 0000.0001)                 3.533014521570507E+05,      /* J = 19 */
(PID.TID 0000.0001)                 3.348152821728782E+05,      /* J = 20 */
(PID.TID 0000.0001)                 3.125171759384927E+05,      /* J = 21 */
(PID.TID 0000.0001)                 2.853398808493375E+05,      /* J = 22 */
(PID.TID 0000.0001)                 2.509117970055231E+05,      /* J = 23 */
(PID.TID 0000.0001)                 2.050577168035814E+05       /* J = 24 */
(PID.TID 0000.0001)     ;
(PID.TID 0000.0001) dxV =  /* dxV(:,1,:,1) ( units: m ) */
(PID.TID 0000.0001)                 1.073234330495632E+05,      /* I =  1 */
(PID.TID 0000.0001)                 1.985735990924987E+05,      /* I =  2 */
(PID.TID 0000.0001)                 2.487081739783213E+05,      /* I =  3 */
(PID.TID 0000.0001)      . . .
(PID.TID 0000.0001)                 3.897956259259311E+05,      /* I = 34 */
(PID.TID 0000.0001)                 3.964575398278304E+05,      /* I = 35 */
(PID.TID 0000.0001)                 4.004747979050998E+05,      /* I = 36 */
(PID.TID 0000.0001)                 4.017992072557876E+05,      /* I = 37 */
(PID.TID 0000.0001)                 4.004747979050998E+05,      /* I = 38 */
(PID.TID 0000.0001)                 3.964575398278304E+05,      /* I = 39 */
(PID.TID 0000.0001)      . . .
(PID.TID 0000.0001)                 2.843739814187906E+05,      /* I = 70 */
(PID.TID 0000.0001)                 2.487081739783213E+05,      /* I = 71 */
(PID.TID 0000.0001)                 1.985735990924987E+05,      /* I = 72 */
(PID.TID 0000.0001)                 1.073234330495632E+05,      /* I = 73 */
(PID.TID 0000.0001)                 1.985735990924987E+05,      /* I = 74 */
(PID.TID 0000.0001)                 2.487081739783213E+05,      /* I = 75 */
(PID.TID 0000.0001)      . . .
(PID.TID 0000.0001)                 3.897956259259311E+05,      /* I =106 */
(PID.TID 0000.0001)                 3.964575398278304E+05,      /* I =107 */
(PID.TID 0000.0001)                 4.004747979050998E+05,      /* I =108 */
(PID.TID 0000.0001)                 4.017992072557876E+05,      /* I =109 */
(PID.TID 0000.0001)                 4.004747979050998E+05,      /* I =110 */
(PID.TID 0000.0001)                 3.964575398278304E+05,      /* I =111 */
(PID.TID 0000.0001)      . . .
(PID.TID 0000.0001)                 2.843739814187906E+05,      /* I =142 */
(PID.TID 0000.0001)                 2.487081739783213E+05,      /* I =143 */
(PID.TID 0000.0001)                 1.985735990924987E+05       /* I =144 */
(PID.TID 0000.0001)     ;
(PID.TID 0000.0001) dxV =  /* dxV(1,:,1,:) ( units: m ) */
(PID.TID 0000.0001)                 1.073234330495632E+05,      /* J =  1 */
(PID.TID 0000.0001)                 1.959886874370024E+05,      /* J =  2 */
(PID.TID 0000.0001)                 2.477422787388276E+05,      /* J =  3 */
(PID.TID 0000.0001)                 2.833032263520675E+05,      /* J =  4 */
(PID.TID 0000.0001)                 3.109946114684317E+05,      /* J =  5 */
(PID.TID 0000.0001)                 3.335108031665227E+05,      /* J =  6 */
(PID.TID 0000.0001)                 3.522686189067639E+05,      /* J =  7 */
(PID.TID 0000.0001)                 3.675993189714980E+05,      /* J =  8 */
(PID.TID 0000.0001)                 3.799862536186255E+05,      /* J =  9 */
(PID.TID 0000.0001)                 3.895477723175827E+05,      /* J = 10 */
(PID.TID 0000.0001)                 3.962585646478562E+05,      /* J = 11 */
(PID.TID 0000.0001)                 4.004366859432351E+05,      /* J = 12 */
(PID.TID 0000.0001)                 4.016907436858709E+05,      /* J = 13 */
(PID.TID 0000.0001)                 4.004366859432351E+05,      /* J = 14 */
(PID.TID 0000.0001)                 3.962585646478562E+05,      /* J = 15 */
(PID.TID 0000.0001)                 3.895477723175827E+05,      /* J = 16 */
(PID.TID 0000.0001)                 3.799862536186255E+05,      /* J = 17 */
(PID.TID 0000.0001)                 3.675993189714981E+05,      /* J = 18 */
(PID.TID 0000.0001)                 3.522686189067639E+05,      /* J = 19 */
(PID.TID 0000.0001)                 3.335108031665227E+05,      /* J = 20 */
(PID.TID 0000.0001)                 3.109946114684317E+05,      /* J = 21 */
(PID.TID 0000.0001)                 2.833032263520675E+05,      /* J = 22 */
(PID.TID 0000.0001)                 2.477422787388276E+05,      /* J = 23 */
(PID.TID 0000.0001)                 1.959886874370024E+05       /* J = 24 */
(PID.TID 0000.0001)     ;
(PID.TID 0000.0001) dyU =  /* dyU(:,1,:,1) ( units: m ) */
(PID.TID 0000.0001)                 1.073234330495632E+05,      /* I =  1 */
(PID.TID 0000.0001)                 1.959886874370024E+05,      /* I =  2 */
(PID.TID 0000.0001)                 2.477422787388276E+05,      /* I =  3 */
(PID.TID 0000.0001)      . . .
(PID.TID 0000.0001)                 3.895477723175827E+05,      /* I = 34 */
(PID.TID 0000.0001)                 3.962585646478562E+05,      /* I = 35 */
(PID.TID 0000.0001)                 4.004366859432351E+05,      /* I = 36 */
(PID.TID 0000.0001)                 4.016907436858709E+05,      /* I = 37 */
(PID.TID 0000.0001)                 4.004366859432351E+05,      /* I = 38 */
(PID.TID 0000.0001)                 3.962585646478562E+05,      /* I = 39 */
(PID.TID 0000.0001)      . . .
(PID.TID 0000.0001)                 2.833032263520675E+05,      /* I = 70 */
(PID.TID 0000.0001)                 2.477422787388276E+05,      /* I = 71 */
(PID.TID 0000.0001)                 1.959886874370024E+05,      /* I = 72 */
(PID.TID 0000.0001)                 1.073234330495632E+05,      /* I = 73 */
(PID.TID 0000.0001)                 1.959886874370024E+05,      /* I = 74 */
(PID.TID 0000.0001)                 2.477422787388276E+05,      /* I = 75 */
(PID.TID 0000.0001)      . . .
(PID.TID 0000.0001)                 3.895477723175827E+05,      /* I =106 */
(PID.TID 0000.0001)                 3.962585646478562E+05,      /* I =107 */
(PID.TID 0000.0001)                 4.004366859432351E+05,      /* I =108 */
(PID.TID 0000.0001)                 4.016907436858709E+05,      /* I =109 */
(PID.TID 0000.0001)                 4.004366859432351E+05,      /* I =110 */
(PID.TID 0000.0001)                 3.962585646478562E+05,      /* I =111 */
(PID.TID 0000.0001)      . . .
(PID.TID 0000.0001)                 2.833032263520675E+05,      /* I =142 */
(PID.TID 0000.0001)                 2.477422787388276E+05,      /* I =143 */
(PID.TID 0000.0001)                 1.959886874370024E+05       /* I =144 */
(PID.TID 0000.0001)     ;
(PID.TID 0000.0001) dyU =  /* dyU(1,:,1,:) ( units: m ) */
(PID.TID 0000.0001)                 1.073234330495632E+05,      /* J =  1 */
(PID.TID 0000.0001)                 1.985735990924987E+05,      /* J =  2 */
(PID.TID 0000.0001)                 2.487081739783213E+05,      /* J =  3 */
(PID.TID 0000.0001)                 2.843739814187906E+05,      /* J =  4 */
(PID.TID 0000.0001)                 3.118959896118816E+05,      /* J =  5 */
(PID.TID 0000.0001)                 3.343425680307320E+05,      /* J =  6 */
(PID.TID 0000.0001)                 3.529409885776126E+05,      /* J =  7 */
(PID.TID 0000.0001)                 3.681318916318928E+05,      /* J =  8 */
(PID.TID 0000.0001)                 3.803492680763606E+05,      /* J =  9 */
(PID.TID 0000.0001)                 3.897956259259311E+05,      /* J = 10 */
(PID.TID 0000.0001)                 3.964575398278304E+05,      /* J = 11 */
(PID.TID 0000.0001)                 4.004747979050998E+05,      /* J = 12 */
(PID.TID 0000.0001)                 4.017992072557876E+05,      /* J = 13 */
(PID.TID 0000.0001)                 4.004747979050998E+05,      /* J = 14 */
(PID.TID 0000.0001)                 3.964575398278304E+05,      /* J = 15 */
(PID.TID 0000.0001)                 3.897956259259311E+05,      /* J = 16 */
(PID.TID 0000.0001)                 3.803492680763606E+05,      /* J = 17 */
(PID.TID 0000.0001)                 3.681318916318928E+05,      /* J = 18 */
(PID.TID 0000.0001)                 3.529409885776126E+05,      /* J = 19 */
(PID.TID 0000.0001)                 3.343425680307320E+05,      /* J = 20 */
(PID.TID 0000.0001)                 3.118959896118816E+05,      /* J = 21 */
(PID.TID 0000.0001)                 2.843739814187906E+05,      /* J = 22 */
(PID.TID 0000.0001)                 2.487081739783213E+05,      /* J = 23 */
(PID.TID 0000.0001)                 1.985735990924987E+05       /* J = 24 */
(PID.TID 0000.0001)     ;
(PID.TID 0000.0001) rA  =  /* rA (:,1,:,1) ( units: m^2 ) */
(PID.TID 0000.0001)                 3.052383974197765E+10,      /* I =  1 */
(PID.TID 0000.0001)                 5.293335912516336E+10,      /* I =  2 */
(PID.TID 0000.0001)                 7.240072595757704E+10,      /* I =  3 */
(PID.TID 0000.0001)      . . .
(PID.TID 0000.0001)                 1.549172621118438E+11,      /* I = 34 */
(PID.TID 0000.0001)                 1.591671367092170E+11,      /* I = 35 */
(PID.TID 0000.0001)                 1.613185561102677E+11,      /* I = 36 */
(PID.TID 0000.0001)                 1.613185561102677E+11,      /* I = 37 */
(PID.TID 0000.0001)                 1.591671367092170E+11,      /* I = 38 */
(PID.TID 0000.0001)                 1.549172621118438E+11,      /* I = 39 */
(PID.TID 0000.0001)      . . .
(PID.TID 0000.0001)                 7.240072595757704E+10,      /* I = 70 */
(PID.TID 0000.0001)                 5.293335912516335E+10,      /* I = 71 */
(PID.TID 0000.0001)                 3.052383974197765E+10,      /* I = 72 */
(PID.TID 0000.0001)                 3.052383974197765E+10,      /* I = 73 */
(PID.TID 0000.0001)                 5.293335912516336E+10,      /* I = 74 */
(PID.TID 0000.0001)                 7.240072595757704E+10,      /* I = 75 */
(PID.TID 0000.0001)      . . .
(PID.TID 0000.0001)                 1.549172621118438E+11,      /* I =106 */
(PID.TID 0000.0001)                 1.591671367092170E+11,      /* I =107 */
(PID.TID 0000.0001)                 1.613185561102677E+11,      /* I =108 */
(PID.TID 0000.0001)                 1.613185561102677E+11,      /* I =109 */
(PID.TID 0000.0001)                 1.591671367092170E+11,      /* I =110 */
(PID.TID 0000.0001)                 1.549172621118438E+11,      /* I =111 */
(PID.TID 0000.0001)      . . .
(PID.TID 0000.0001)                 7.240072595757704E+10,      /* I =142 */
(PID.TID 0000.0001)                 5.293335912516335E+10,      /* I =143 */
(PID.TID 0000.0001)                 3.052383974197765E+10       /* I =144 */
(PID.TID 0000.0001)     ;
(PID.TID 0000.0001) rA  =  /* rA (1,:,1,:) ( units: m^2 ) */
(PID.TID 0000.0001)                 3.052383974197765E+10,      /* J =  1 */
(PID.TID 0000.0001)                 5.293335912519940E+10,      /* J =  2 */
(PID.TID 0000.0001)                 7.240072595759506E+10,      /* J =  3 */
(PID.TID 0000.0001)                 8.964322752209772E+10,      /* J =  4 */
(PID.TID 0000.0001)                 1.049253899809489E+11,      /* J =  5 */
(PID.TID 0000.0001)                 1.184593717874130E+11,      /* J =  6 */
(PID.TID 0000.0001)                 1.303131565117627E+11,      /* J =  7 */
(PID.TID 0000.0001)                 1.403871272786593E+11,      /* J =  8 */
(PID.TID 0000.0001)                 1.486227830739568E+11,      /* J =  9 */
(PID.TID 0000.0001)                 1.549172621118257E+11,      /* J = 10 */
(PID.TID 0000.0001)                 1.591671367092981E+11,      /* J = 11 */
(PID.TID 0000.0001)     2 @  1.613185561102497E+11,             /* J = 12: 13 */
(PID.TID 0000.0001)                 1.591671367092981E+11,      /* J = 14 */
(PID.TID 0000.0001)                 1.549172621118257E+11,      /* J = 15 */
(PID.TID 0000.0001)                 1.486227830739568E+11,      /* J = 16 */
(PID.TID 0000.0001)                 1.403871272786593E+11,      /* J = 17 */
(PID.TID 0000.0001)                 1.303131565117627E+11,      /* J = 18 */
(PID.TID 0000.0001)                 1.184593717874130E+11,      /* J = 19 */
(PID.TID 0000.0001)                 1.049253899809489E+11,      /* J = 20 */
(PID.TID 0000.0001)                 8.964322752209772E+10,      /* J = 21 */
(PID.TID 0000.0001)                 7.240072595759506E+10,      /* J = 22 */
(PID.TID 0000.0001)                 5.293335912519939E+10,      /* J = 23 */
(PID.TID 0000.0001)                 3.052383974197765E+10       /* J = 24 */
(PID.TID 0000.0001)     ;
(PID.TID 0000.0001) rAw =  /* rAw(:,1,:,1) ( units: m^2 ) */
(PID.TID 0000.0001)                 2.459987321579695E+10,      /* I =  1 */
(PID.TID 0000.0001)                 4.208569626784441E+10,      /* I =  2 */
(PID.TID 0000.0001)                 6.294679660237782E+10,      /* I =  3 */
(PID.TID 0000.0001)      . . .
(PID.TID 0000.0001)                 1.520174004228259E+11,      /* I = 34 */
(PID.TID 0000.0001)                 1.573024553042191E+11,      /* I = 35 */
(PID.TID 0000.0001)                 1.605135173356231E+11,      /* I = 36 */
(PID.TID 0000.0001)                 1.615823692847176E+11,      /* I = 37 */
(PID.TID 0000.0001)                 1.605135173356231E+11,      /* I = 38 */
(PID.TID 0000.0001)                 1.573024553042192E+11,      /* I = 39 */
(PID.TID 0000.0001)      . . .
(PID.TID 0000.0001)                 8.133010332734296E+10,      /* I = 70 */
(PID.TID 0000.0001)                 6.294679660237782E+10,      /* I = 71 */
(PID.TID 0000.0001)                 4.208569626784441E+10,      /* I = 72 */
(PID.TID 0000.0001)                 2.459987321579695E+10,      /* I = 73 */
(PID.TID 0000.0001)                 4.208569626784441E+10,      /* I = 74 */
(PID.TID 0000.0001)                 6.294679660237782E+10,      /* I = 75 */
(PID.TID 0000.0001)      . . .
(PID.TID 0000.0001)                 1.520174004228259E+11,      /* I =106 */
(PID.TID 0000.0001)                 1.573024553042191E+11,      /* I =107 */
(PID.TID 0000.0001)                 1.605135173356231E+11,      /* I =108 */
(PID.TID 0000.0001)                 1.615823692847176E+11,      /* I =109 */
(PID.TID 0000.0001)                 1.605135173356231E+11,      /* I =110 */
(PID.TID 0000.0001)                 1.573024553042192E+11,      /* I =111 */
(PID.TID 0000.0001)      . . .
(PID.TID 0000.0001)                 8.133010332734296E+10,      /* I =142 */
(PID.TID 0000.0001)                 6.294679660237782E+10,      /* I =143 */
(PID.TID 0000.0001)                 4.208569626784441E+10       /* I =144 */
(PID.TID 0000.0001)     ;
(PID.TID 0000.0001) rAw =  /* rAw(1,:,1,:) ( units: m^2 ) */
(PID.TID 0000.0001)                 2.459987321579695E+10,      /* J =  1 */
(PID.TID 0000.0001)                 5.107770127475098E+10,      /* J =  2 */
(PID.TID 0000.0001)                 7.147072143434398E+10,      /* J =  3 */
(PID.TID 0000.0001)                 8.907108758438782E+10,      /* J =  4 */
(PID.TID 0000.0001)                 1.045094480967093E+11,      /* J =  5 */
(PID.TID 0000.0001)                 1.181499238129279E+11,      /* J =  6 */
(PID.TID 0000.0001)                 1.300535723350617E+11,      /* J =  7 */
(PID.TID 0000.0001)                 1.401743452978992E+11,      /* J =  8 */
(PID.TID 0000.0001)                 1.484322384907274E+11,      /* J =  9 */
(PID.TID 0000.0001)                 1.547486951582445E+11,      /* J = 10 */
(PID.TID 0000.0001)                 1.590162266605332E+11,      /* J = 11 */
(PID.TID 0000.0001)     2 @  1.611688303100770E+11,             /* J = 12: 13 */
(PID.TID 0000.0001)                 1.590162266605331E+11,      /* J = 14 */
(PID.TID 0000.0001)                 1.547486951582445E+11,      /* J = 15 */
(PID.TID 0000.0001)                 1.484322384907274E+11,      /* J = 16 */
(PID.TID 0000.0001)                 1.401743452978992E+11,      /* J = 17 */
(PID.TID 0000.0001)                 1.300535723350617E+11,      /* J = 18 */
(PID.TID 0000.0001)                 1.181499238129279E+11,      /* J = 19 */
(PID.TID 0000.0001)                 1.045094480967093E+11,      /* J = 20 */
(PID.TID 0000.0001)                 8.907108758438782E+10,      /* J = 21 */
(PID.TID 0000.0001)                 7.147072143434398E+10,      /* J = 22 */
(PID.TID 0000.0001)                 5.107770127475098E+10,      /* J = 23 */
(PID.TID 0000.0001)                 2.459987321579695E+10       /* J = 24 */
(PID.TID 0000.0001)     ;
(PID.TID 0000.0001) rAs =  /* rAs(:,1,:,1) ( units: m^2 ) */
(PID.TID 0000.0001)                 2.459987321586903E+10,      /* I =  1 */
(PID.TID 0000.0001)                 5.107770127471494E+10,      /* I =  2 */
(PID.TID 0000.0001)                 7.147072143425388E+10,      /* I =  3 */
(PID.TID 0000.0001)      . . .
(PID.TID 0000.0001)                 1.547486951582805E+11,      /* I = 34 */
(PID.TID 0000.0001)                 1.590162266604971E+11,      /* I = 35 */
(PID.TID 0000.0001)                 1.611688303100950E+11,      /* I = 36 */
(PID.TID 0000.0001)                 1.611688303100950E+11,      /* I = 37 */
(PID.TID 0000.0001)                 1.590162266604971E+11,      /* I = 38 */
(PID.TID 0000.0001)                 1.547486951582806E+11,      /* I = 39 */
(PID.TID 0000.0001)      . . .
(PID.TID 0000.0001)                 7.147072143425388E+10,      /* I = 70 */
(PID.TID 0000.0001)                 5.107770127471494E+10,      /* I = 71 */
(PID.TID 0000.0001)                 2.459987321586903E+10,      /* I = 72 */
(PID.TID 0000.0001)                 2.459987321586903E+10,      /* I = 73 */
(PID.TID 0000.0001)                 5.107770127471494E+10,      /* I = 74 */
(PID.TID 0000.0001)                 7.147072143425388E+10,      /* I = 75 */
(PID.TID 0000.0001)      . . .
(PID.TID 0000.0001)                 1.547486951582805E+11,      /* I =106 */
(PID.TID 0000.0001)                 1.590162266604971E+11,      /* I =107 */
(PID.TID 0000.0001)                 1.611688303100950E+11,      /* I =108 */
(PID.TID 0000.0001)                 1.611688303100950E+11,      /* I =109 */
(PID.TID 0000.0001)                 1.590162266604971E+11,      /* I =110 */
(PID.TID 0000.0001)                 1.547486951582806E+11,      /* I =111 */
(PID.TID 0000.0001)      . . .
(PID.TID 0000.0001)                 7.147072143425388E+10,      /* I =142 */
(PID.TID 0000.0001)                 5.107770127471494E+10,      /* I =143 */
(PID.TID 0000.0001)                 2.459987321586903E+10       /* I =144 */
(PID.TID 0000.0001)     ;
(PID.TID 0000.0001) rAs =  /* rAs(1,:,1,:) ( units: m^2 ) */
(PID.TID 0000.0001)                 2.459987321586903E+10,      /* J =  1 */
(PID.TID 0000.0001)                 4.208569626782639E+10,      /* J =  2 */
(PID.TID 0000.0001)                 6.294679660240485E+10,      /* J =  3 */
(PID.TID 0000.0001)                 8.133010332736098E+10,      /* J =  4 */
(PID.TID 0000.0001)                 9.750085127458887E+10,      /* J =  5 */
(PID.TID 0000.0001)                 1.119057790311065E+11,      /* J =  6 */
(PID.TID 0000.0001)                 1.246070689383815E+11,      /* J =  7 */
(PID.TID 0000.0001)                 1.355699756093808E+11,      /* J =  8 */
(PID.TID 0000.0001)                 1.447411705469368E+11,      /* J =  9 */
(PID.TID 0000.0001)                 1.520174004227989E+11,      /* J = 10 */
(PID.TID 0000.0001)                 1.573024553042732E+11,      /* J = 11 */
(PID.TID 0000.0001)                 1.605135173356321E+11,      /* J = 12 */
(PID.TID 0000.0001)                 1.615823692847176E+11,      /* J = 13 */
(PID.TID 0000.0001)                 1.605135173356321E+11,      /* J = 14 */
(PID.TID 0000.0001)                 1.573024553042732E+11,      /* J = 15 */
(PID.TID 0000.0001)                 1.520174004227989E+11,      /* J = 16 */
(PID.TID 0000.0001)                 1.447411705469368E+11,      /* J = 17 */
(PID.TID 0000.0001)                 1.355699756093808E+11,      /* J = 18 */
(PID.TID 0000.0001)                 1.246070689383815E+11,      /* J = 19 */
(PID.TID 0000.0001)                 1.119057790311065E+11,      /* J = 20 */
(PID.TID 0000.0001)                 9.750085127458887E+10,      /* J = 21 */
(PID.TID 0000.0001)                 8.133010332736098E+10,      /* J = 22 */
(PID.TID 0000.0001)                 6.294679660240485E+10,      /* J = 23 */
(PID.TID 0000.0001)                 4.208569626782639E+10       /* J = 24 */
(PID.TID 0000.0001)     ;
(PID.TID 0000.0001) globalArea = /* Integrated horizontal Area (m^2) */
(PID.TID 0000.0001)                 5.099545490252033E+14
(PID.TID 0000.0001)     ;
(PID.TID 0000.0001) hasWetCSCorners = /* Domain contains CS corners (True/False) */
(PID.TID 0000.0001)                   T
(PID.TID 0000.0001)     ;
(PID.TID 0000.0001) // =======================================================
(PID.TID 0000.0001) // End of Model config. summary
(PID.TID 0000.0001) // =======================================================
(PID.TID 0000.0001) 
(PID.TID 0000.0001) == Packages configuration : Check & print summary ==
(PID.TID 0000.0001) 
(PID.TID 0000.0001) THSICE_CHECK: #define THSICE
(PID.TID 0000.0001) LAND_CHECK: #define ALLOW_LAND
(PID.TID 0000.0001) // ===================================
(PID.TID 0000.0001) // Land package parameters :
(PID.TID 0000.0001) // ===================================
(PID.TID 0000.0001) land_calc_grT = /* step forward ground Temp. on/off flag */
(PID.TID 0000.0001)                   T
(PID.TID 0000.0001)     ;
(PID.TID 0000.0001) land_calc_grW = /* step forward soil moiture on/off flag */
(PID.TID 0000.0001)                   T
(PID.TID 0000.0001)     ;
(PID.TID 0000.0001) land_impl_grT = /* solve ground temperature implicitly */
(PID.TID 0000.0001)                   T
(PID.TID 0000.0001)     ;
(PID.TID 0000.0001) land_calc_snow = /* step forward snow thickness */
(PID.TID 0000.0001)                   T
(PID.TID 0000.0001)     ;
(PID.TID 0000.0001) land_calc_alb = /* compute land+snow albedo */
(PID.TID 0000.0001)                   T
(PID.TID 0000.0001)     ;
(PID.TID 0000.0001) land_deltaT = /* land model Time-Step (s) */
(PID.TID 0000.0001)                 1.200000000000000E+03
(PID.TID 0000.0001)     ;
(PID.TID 0000.0001) land_taveFreq = /* Frequency^-1 for time-Aver. output (s) */
(PID.TID 0000.0001)                 0.000000000000000E+00
(PID.TID 0000.0001)     ;
(PID.TID 0000.0001) land_diagFreq = /* Frequency^-1 for diagnostic output (s) */
(PID.TID 0000.0001)                 2.592000000000000E+05
(PID.TID 0000.0001)     ;
(PID.TID 0000.0001) land_monFreq = /* Frequency^-1 for monitor output (s) */
(PID.TID 0000.0001)                 2.592000000000000E+05
(PID.TID 0000.0001)     ;
(PID.TID 0000.0001) land_dzF = /* layer thickness ( m ) */
(PID.TID 0000.0001)                 1.000000000000000E-01,      /* K =  1 */
(PID.TID 0000.0001)                 4.000000000000000E+00       /* K =  2 */
(PID.TID 0000.0001)     ;
(PID.TID 0000.0001) land_rec_dzC= /* recip. vertical spacing (m-1) */
(PID.TID 0000.0001)                 2.000000000000000E+01,      /* K =  1 */
(PID.TID 0000.0001)                 4.878048780487805E-01       /* K =  2 */
(PID.TID 0000.0001)     ;
(PID.TID 0000.0001) land_timeave_mdsio = /* use MDSIO for Tave output */
(PID.TID 0000.0001)                   T
(PID.TID 0000.0001)     ;
(PID.TID 0000.0001) land_timeave_mnc = /* use MNC for Tave output */
(PID.TID 0000.0001)                   F
(PID.TID 0000.0001)     ;
(PID.TID 0000.0001) land_snapshot_mdsio = /* use MDSIO for snapshot output */
(PID.TID 0000.0001)                   T
(PID.TID 0000.0001)     ;
(PID.TID 0000.0001) land_snapshot_mnc = /* use MNC for snapshot output */
(PID.TID 0000.0001)                   F
(PID.TID 0000.0001)     ;
(PID.TID 0000.0001) land_mon_stdio = /* use STDOUT for monitor output */
(PID.TID 0000.0001)                   T
(PID.TID 0000.0001)     ;
(PID.TID 0000.0001) land_mon_mnc = /* use MNC for monitor output */
(PID.TID 0000.0001)                   F
(PID.TID 0000.0001)     ;
(PID.TID 0000.0001) land_pickup_write_mnc = /* use MNC for writing pickups */
(PID.TID 0000.0001)                   F
(PID.TID 0000.0001)     ;
(PID.TID 0000.0001) land_pickup_read_mnc = /* use MNC for reading pickups */
(PID.TID 0000.0001)                   F
(PID.TID 0000.0001)     ;
(PID.TID 0000.0001) land_grdLambda = /* Thermal conductivity of the ground (W/m/K)*/
(PID.TID 0000.0001)                 4.200000000000000E-01
(PID.TID 0000.0001)     ;
(PID.TID 0000.0001) land_heatCs = /* Heat capacity of dry soil (J/m3/K) */
(PID.TID 0000.0001)                 1.130000000000000E+06
(PID.TID 0000.0001)     ;
(PID.TID 0000.0001) land_CpWater = /* Heat capacity of water    (J/kg/K) */
(PID.TID 0000.0001)                 4.200000000000000E+03
(PID.TID 0000.0001)     ;
(PID.TID 0000.0001) land_wTauDiff = /* soil moisture diffusion time scale (s) */
(PID.TID 0000.0001)                 1.728000000000000E+05
(PID.TID 0000.0001)     ;
(PID.TID 0000.0001) land_waterCap = /* field capacity per meter of soil (1) */
(PID.TID 0000.0001)                 2.400000000000000E-01
(PID.TID 0000.0001)     ;
(PID.TID 0000.0001) land_fractRunOff= /* fraction of water in excess which run-off */
(PID.TID 0000.0001)                 5.000000000000000E-01
(PID.TID 0000.0001)     ;
(PID.TID 0000.0001) land_rhoLiqW = /* density of liquid water (kg/m3) */
(PID.TID 0000.0001)                 1.000000000000000E+03
(PID.TID 0000.0001)     ;
(PID.TID 0000.0001) land_rhoSnow = /* density of snow (kg/m3) */
(PID.TID 0000.0001)                 3.300000000000000E+02
(PID.TID 0000.0001)     ;
(PID.TID 0000.0001) land_Lfreez = /* Latent heat of freezing (J/kg) */
(PID.TID 0000.0001)                 3.340000000000000E+05
(PID.TID 0000.0001)     ;
(PID.TID 0000.0001) land_hMaxSnow = /* maximum snow-thickness (m) */
(PID.TID 0000.0001)                 1.000000000000000E+01
(PID.TID 0000.0001)     ;
(PID.TID 0000.0001) diffKsnow = /* thermal conductivity of snow (W/m/K) */
(PID.TID 0000.0001)                 3.000000000000000E-01
(PID.TID 0000.0001)     ;
(PID.TID 0000.0001) timeSnowAge = /* snow aging time scale   (s) */
(PID.TID 0000.0001)                 4.320000000000000E+06
(PID.TID 0000.0001)     ;
(PID.TID 0000.0001) hNewSnowAge = /* new snow thickness to refresh snow-age by 1/e */
(PID.TID 0000.0001)                 2.000000000000000E-03
(PID.TID 0000.0001)     ;
(PID.TID 0000.0001) albColdSnow = /* albedo of cold (=dry) new snow */
(PID.TID 0000.0001)                 8.000000000000000E-01
(PID.TID 0000.0001)     ;
(PID.TID 0000.0001) albWarmSnow = /* albedo of warm (=wet) new snow */
(PID.TID 0000.0001)                 4.500000000000000E-01
(PID.TID 0000.0001)     ;
(PID.TID 0000.0001) tempSnowAlbL = /* Temp. transition from ColdSnow to WarmSnow Alb. (oC) */
(PID.TID 0000.0001)                -5.000000000000000E+00
(PID.TID 0000.0001)     ;
(PID.TID 0000.0001) albOldSnow = /* albedo of old snow (snowAge >35.d)*/
(PID.TID 0000.0001)                 4.500000000000000E-01
(PID.TID 0000.0001)     ;
(PID.TID 0000.0001) hAlbSnow = /* snow depth for albedo transition */
(PID.TID 0000.0001)                 5.000000000000000E-02
(PID.TID 0000.0001)     ;
(PID.TID 0000.0001) // ===================================
(PID.TID 0000.0001) GAD_CHECK: #define ALLOW_GENERIC_ADVDIFF
(PID.TID 0000.0001) // =======================================================
(PID.TID 0000.0001) // Check Model config. (CONFIG_CHECK):
(PID.TID 0000.0001) // CONFIG_CHECK : Normal End
(PID.TID 0000.0001) // =======================================================
(PID.TID 0000.0001) 
(PID.TID 0000.0001)  MDS_READ_META: opening file: pickup.0556243200.meta
(PID.TID 0000.0001)  nRecords =  68 ; filePrec =  64 ; fileIter = 556243200
(PID.TID 0000.0001)     nDims =   2 , dims:
(PID.TID 0000.0001)    1: 144   1 144
(PID.TID 0000.0001)    2:  24   1  24
(PID.TID 0000.0001)     nFlds =  16 , nFl3D =  13 , fields:
(PID.TID 0000.0001)  >Uvel    < >Vvel    < >Theta   < >Salt    < >GuNm1   < >GuNm2   < >GvNm1   < >GvNm2   < >TempNm1 < >TempNm2 < >SaltNm1 < >SaltNm2 < >Phi_NHyd< >EtaN    < >dEtaHdt < >EtaH    <
(PID.TID 0000.0001) missingVal=  1.00000000000000E+00 ; nTimRec =   0 , timeList:
(PID.TID 0000.0001) READ_MFLDS_3D_RL: read field: "Uvel    ", #   1 in fldList, rec=   1
(PID.TID 0000.0001)  MDS_READ_FIELD: opening global file: pickup.0556243200.data
(PID.TID 0000.0001) READ_MFLDS_3D_RL: read field: "Vvel    ", #   2 in fldList, rec=   2
(PID.TID 0000.0001)  MDS_READ_FIELD: opening global file: pickup.0556243200.data
(PID.TID 0000.0001) READ_MFLDS_3D_RL: read field: "Theta   ", #   3 in fldList, rec=   3
(PID.TID 0000.0001)  MDS_READ_FIELD: opening global file: pickup.0556243200.data
(PID.TID 0000.0001) READ_MFLDS_3D_RL: read field: "Salt    ", #   4 in fldList, rec=   4
(PID.TID 0000.0001)  MDS_READ_FIELD: opening global file: pickup.0556243200.data
(PID.TID 0000.0001) READ_MFLDS_3D_RL: read field: "GuNm1   ", #   5 in fldList, rec=   5
(PID.TID 0000.0001)  MDS_READ_FIELD: opening global file: pickup.0556243200.data
(PID.TID 0000.0001) READ_MFLDS_3D_RL: read field: "GuNm2   ", #   6 in fldList, rec=   6
(PID.TID 0000.0001)  MDS_READ_FIELD: opening global file: pickup.0556243200.data
(PID.TID 0000.0001) READ_MFLDS_3D_RL: read field: "GvNm1   ", #   7 in fldList, rec=   7
(PID.TID 0000.0001)  MDS_READ_FIELD: opening global file: pickup.0556243200.data
(PID.TID 0000.0001) READ_MFLDS_3D_RL: read field: "GvNm2   ", #   8 in fldList, rec=   8
(PID.TID 0000.0001)  MDS_READ_FIELD: opening global file: pickup.0556243200.data
(PID.TID 0000.0001) READ_MFLDS_3D_RL: read field: "TempNm1 ", #   9 in fldList, rec=   9
(PID.TID 0000.0001)  MDS_READ_FIELD: opening global file: pickup.0556243200.data
(PID.TID 0000.0001) READ_MFLDS_3D_RL: read field: "TempNm2 ", #  10 in fldList, rec=  10
(PID.TID 0000.0001)  MDS_READ_FIELD: opening global file: pickup.0556243200.data
(PID.TID 0000.0001) READ_MFLDS_3D_RL: read field: "SaltNm1 ", #  11 in fldList, rec=  11
(PID.TID 0000.0001)  MDS_READ_FIELD: opening global file: pickup.0556243200.data
(PID.TID 0000.0001) READ_MFLDS_3D_RL: read field: "SaltNm2 ", #  12 in fldList, rec=  12
(PID.TID 0000.0001)  MDS_READ_FIELD: opening global file: pickup.0556243200.data
(PID.TID 0000.0001) READ_MFLDS_3D_RL: read field: "Phi_NHyd", #  13 in fldList, rec=  13
(PID.TID 0000.0001)  MDS_READ_FIELD: opening global file: pickup.0556243200.data
(PID.TID 0000.0001) READ_MFLDS_3D_RL: read field: "EtaN    ", #  14 in fldList, rec=  66
(PID.TID 0000.0001)  MDS_READ_FIELD: opening global file: pickup.0556243200.data
(PID.TID 0000.0001) READ_MFLDS_3D_RL: read field: "dEtaHdt ", #  15 in fldList, rec=  67
(PID.TID 0000.0001)  MDS_READ_FIELD: opening global file: pickup.0556243200.data
(PID.TID 0000.0001) READ_MFLDS_CHECK: - normal end ; reset MFLDS file-name: pickup.0556243200
(PID.TID 0000.0001)  write diagnostics summary to file ioUnit:      6
Iter.Nb: 556243200 ; Time(s):  6.6749184000000E+11
------------------------------------------------------------------------
2D/3D diagnostics: Number of lists:     0
------------------------------------------------------------------------
Global & Regional Statistics diagnostics: Number of lists:     1
------------------------------------------------------------------------
listId=   1 ; file name: cplStDiag
 nFlds, nActive,       freq     &     phase        |                    
    8  |    8  |     -3600.000000         0.000000 |
 Regions:   0
 diag# | name   |   ipt  |  iMate |    Volume   |   mate-Vol. |         
   187 |SI_Fract|      1 |      0 | 0.00000E+00 |
   188 |SI_Thick|      2 |      1 | 0.00000E+00 | 0.00000E+00 |
   273 |aim_pCO2|      3 |      0 | 0.00000E+00 |
   279 |CPL_fCO2|      4 |      0 | 0.00000E+00 |
   275 |CPL_MxlD|      5 |      0 | 0.00000E+00 |
   276 |CPL_SST |      6 |      0 | 0.00000E+00 |
   277 |CPL_SSS |      7 |      0 | 0.00000E+00 |
   278 |CPL_Vel2|      8 |      0 | 0.00000E+00 |
------------------------------------------------------------------------
(PID.TID 0000.0001)  MDS_READ_FIELD: opening global file: pickup_ic.0556243200.data
(PID.TID 0000.0001)  MDS_READ_FIELD: opening global file: pickup_ic.0556243200.data
(PID.TID 0000.0001)  MDS_READ_FIELD: opening global file: pickup_ic.0556243200.data
(PID.TID 0000.0001)  MDS_READ_FIELD: opening global file: pickup_ic.0556243200.data
(PID.TID 0000.0001)  MDS_READ_FIELD: opening global file: pickup_ic.0556243200.data
(PID.TID 0000.0001)  MDS_READ_FIELD: opening global file: pickup_ic.0556243200.data
(PID.TID 0000.0001)  MDS_READ_FIELD: opening global file: pickup_ic.0556243200.data
(PID.TID 0000.0001)  MDS_READ_FIELD: opening global file: pickup_ic.0556243200.data
(PID.TID 0000.0001)  MDS_READ_FIELD: opening global file: pickup_ic.0556243200.data
(PID.TID 0000.0001)  MDS_READ_FIELD: opening global file: pickup_land.0556243200.data
(PID.TID 0000.0001)  MDS_READ_FIELD: opening global file: pickup_land.0556243200.data
(PID.TID 0000.0001)  MDS_READ_FIELD: opening global file: pickup_land.0556243200.data
(PID.TID 0000.0001)  MDS_READ_FIELD: opening global file: pickup_land.0556243200.data
(PID.TID 0000.0001)  MDS_READ_FIELD: opening global file: pickup_land.0556243200.data
(PID.TID 0000.0001)  MDS_READ_META: opening file: pickup_cpl.0556243200.meta
(PID.TID 0000.0001)  nRecords =  18 ; filePrec =  64 ; fileIter = 556243200
(PID.TID 0000.0001)     nDims =   2 , dims:
(PID.TID 0000.0001)    1: 144   1 144
(PID.TID 0000.0001)    2:  24   1  24
(PID.TID 0000.0001)     nFlds =   0 , nFl3D =   0 , fields:
(PID.TID 0000.0001) missingVal=  1.00000000000000E+00 ; nTimRec =   0 , timeList:
(PID.TID 0000.0001)  MDS_READ_FIELD: opening global file: pickup_cpl.0556243200.data
(PID.TID 0000.0001)  MDS_READ_FIELD: opening global file: pickup_cpl.0556243200.data
(PID.TID 0000.0001)  MDS_READ_FIELD: opening global file: pickup_cpl.0556243200.data
(PID.TID 0000.0001)  MDS_READ_FIELD: opening global file: pickup_cpl.0556243200.data
(PID.TID 0000.0001)  MDS_READ_FIELD: opening global file: pickup_cpl.0556243200.data
(PID.TID 0000.0001)  MDS_READ_FIELD: opening global file: pickup_cpl.0556243200.data
(PID.TID 0000.0001)  MDS_READ_FIELD: opening global file: pickup_cpl.0556243200.data
(PID.TID 0000.0001)  MDS_READ_FIELD: opening global file: pickup_cpl.0556243200.data
(PID.TID 0000.0001)  MDS_READ_FIELD: opening global file: pickup_cpl.0556243200.data
(PID.TID 0000.0001)  MDS_READ_FIELD: opening global file: pickup_cpl.0556243200.data
(PID.TID 0000.0001) READ_MFLDS_CHECK: - normal end ; reset MFLDS file-name: pickup_cpl.0556243200
(PID.TID 0000.0001) // =======================================================
(PID.TID 0000.0001) // Model current state
(PID.TID 0000.0001) // =======================================================
(PID.TID 0000.0001) 
(PID.TID 0000.0001) // =======================================================
(PID.TID 0000.0001) // Begin MONITOR dynamic field statistics
(PID.TID 0000.0001) // =======================================================
(PID.TID 0000.0001) %MON time_tsnumber                =             556243200
(PID.TID 0000.0001) %MON time_secondsf                =   6.6749184000000E+11
(PID.TID 0000.0001) %MON dynstat_eta_max              =   2.2417697308277E+03
(PID.TID 0000.0001) %MON dynstat_eta_min              =  -4.2814716471418E+03
(PID.TID 0000.0001) %MON dynstat_eta_mean             =   6.2207689051190E-09
(PID.TID 0000.0001) %MON dynstat_eta_sd               =   9.7850791768076E+02
(PID.TID 0000.0001) %MON dynstat_eta_del2             =   4.3324807014481E+00
(PID.TID 0000.0001) %MON dynstat_uvel_max             =   6.9720224316160E+01
(PID.TID 0000.0001) %MON dynstat_uvel_min             =  -5.9883912693600E+01
(PID.TID 0000.0001) %MON dynstat_uvel_mean            =   1.8280480559083E+00
(PID.TID 0000.0001) %MON dynstat_uvel_sd              =   1.2419575654984E+01
(PID.TID 0000.0001) %MON dynstat_uvel_del2            =   4.7784828364335E-02
(PID.TID 0000.0001) %MON dynstat_vvel_max             =   1.0094127014721E+02
(PID.TID 0000.0001) %MON dynstat_vvel_min             =  -5.4971026407091E+01
(PID.TID 0000.0001) %MON dynstat_vvel_mean            =   1.7854257414330E+00
(PID.TID 0000.0001) %MON dynstat_vvel_sd              =   1.2457309997526E+01
(PID.TID 0000.0001) %MON dynstat_vvel_del2            =   4.8127245822633E-02
(PID.TID 0000.0001) %MON dynstat_wvel_max             =   1.0892579996280E+00
(PID.TID 0000.0001) %MON dynstat_wvel_min             =  -8.3963288074252E-01
(PID.TID 0000.0001) %MON dynstat_wvel_mean            =  -2.3743504457904E-18
(PID.TID 0000.0001) %MON dynstat_wvel_sd              =   9.2442485911874E-02
(PID.TID 0000.0001) %MON dynstat_wvel_del2            =   1.3717278555232E-03
(PID.TID 0000.0001) %MON dynstat_theta_max            =   5.0187762708546E+02
(PID.TID 0000.0001) %MON dynstat_theta_min            =   2.6630129850054E+02
(PID.TID 0000.0001) %MON dynstat_theta_mean           =   3.3729716738061E+02
(PID.TID 0000.0001) %MON dynstat_theta_sd             =   4.8952039862627E+01
(PID.TID 0000.0001) %MON dynstat_theta_del2           =   2.6782474581045E-02
(PID.TID 0000.0001) %MON dynstat_salt_max             =   1.7774249562625E+01
(PID.TID 0000.0001) %MON dynstat_salt_min             =  -1.8601582475565E+00
(PID.TID 0000.0001) %MON dynstat_salt_mean            =   3.2343622294454E+00
(PID.TID 0000.0001) %MON dynstat_salt_sd              =   3.9653990776736E+00
(PID.TID 0000.0001) %MON dynstat_salt_del2            =   1.2063433769759E-02
(PID.TID 0000.0001) %MON trAdv_CFL_u_max              =   0.0000000000000E+00
(PID.TID 0000.0001) %MON trAdv_CFL_v_max              =   0.0000000000000E+00
(PID.TID 0000.0001) %MON trAdv_CFL_w_max              =   0.0000000000000E+00
(PID.TID 0000.0001) %MON advcfl_uvel_max              =   5.3823933816984E-01
(PID.TID 0000.0001) %MON advcfl_vvel_max              =   4.1329930254013E-01
(PID.TID 0000.0001) %MON advcfl_wvel_max              =   7.4691977117350E-02
(PID.TID 0000.0001) %MON advcfl_W_hf_max              =   1.3071095995536E-01
(PID.TID 0000.0001) %MON am_eta_mean                  =   0.0000000000000E+00
(PID.TID 0000.0001) %MON am_uZo_mean                  =   3.1470020406310E+11
(PID.TID 0000.0001) %MON am_tot_mean                  =   3.1470020406310E+11
(PID.TID 0000.0001) %MON pe_b_mean                    =   3.9770671023046E+00
(PID.TID 0000.0001) %MON ke_max                       =   5.0692843255124E+03
(PID.TID 0000.0001) %MON ke_mean                      =   1.5791031000914E+02
(PID.TID 0000.0001) %MON ke_vol                       =   5.0995454902520E+19
(PID.TID 0000.0001) %MON vort_r_min                   =  -2.9029403189492E-04
(PID.TID 0000.0001) %MON vort_r_max                   =   1.2544422147050E-04
(PID.TID 0000.0001) %MON vort_a_mean                  =  -6.8633567573627E-20
(PID.TID 0000.0001) %MON vort_a_sd                    =   8.8840149240090E-05
(PID.TID 0000.0001) %MON vort_p_mean                  =  -6.8633567573627E-20
(PID.TID 0000.0001) %MON vort_p_sd                    =   8.8840149240090E-05
(PID.TID 0000.0001) %MON surfExpan_theta_mean         =  -3.5222330775090E-03
(PID.TID 0000.0001) %MON surfExpan_salt_mean          =  -1.7278224542991E-03
(PID.TID 0000.0001) %MON surfExpan_Heat_mean          =  -3.5523693351091E-01
(PID.TID 0000.0001) %MON En_Budget_T2PE_mean          =   1.8659832602289E+00
(PID.TID 0000.0001) // =======================================================
(PID.TID 0000.0001) // End MONITOR dynamic field statistics
(PID.TID 0000.0001) // =======================================================
(PID.TID 0000.0001) // =======================================================
(PID.TID 0000.0001) // Begin MONITOR Land statistics
(PID.TID 0000.0001) // =======================================================
(PID.TID 0000.0001) %MON land_time_sec                =   6.6749184000000E+11
(PID.TID 0000.0001) %MON land_SnwH_ave_G              =   3.7966132930572E-03
(PID.TID 0000.0001) %MON land_SnwH_ave_S              =   0.0000000000000E+00
(PID.TID 0000.0001) %MON land_SnwH_ave_T              =   0.0000000000000E+00
(PID.TID 0000.0001) %MON land_SnwH_ave_N              =   7.1104259439128E-03
(PID.TID 0000.0001) %MON land_SnwH_max_S              =   0.0000000000000E+00
(PID.TID 0000.0001) %MON land_SnwH_max_T              =   0.0000000000000E+00
(PID.TID 0000.0001) %MON land_SnwH_max_N              =   7.3268648049947E-02
(PID.TID 0000.0001) %MON land_Tsrf_ave_G              =   1.4750039751236E+01
(PID.TID 0000.0001) %MON land_Tsrf_ave_S              =   3.5899504604049E+01
(PID.TID 0000.0001) %MON land_Tsrf_ave_T              =   2.8153127815842E+01
(PID.TID 0000.0001) %MON land_Tsrf_ave_N              =   1.7751376687852E+00
(PID.TID 0000.0001) %MON land_Tsrf_min_S              =   3.1208811172140E+01
(PID.TID 0000.0001) %MON land_Tsrf_min_T              =   2.5977076242061E+01
(PID.TID 0000.0001) %MON land_Tsrf_min_N              =  -1.9984404214502E+01
(PID.TID 0000.0001) %MON land_Tsrf_max_S              =   4.0283945178517E+01
(PID.TID 0000.0001) %MON land_Tsrf_max_T              =   3.0725081469228E+01
(PID.TID 0000.0001) %MON land_Tsrf_max_N              =   2.9152668981473E+01
(PID.TID 0000.0001) %MON land_Tgr1_ave_G              =   1.4772202866463E+01
(PID.TID 0000.0001) %MON land_Tgr1_ave_S              =   3.5899504604049E+01
(PID.TID 0000.0001) %MON land_Tgr1_ave_T              =   2.8153127815842E+01
(PID.TID 0000.0001) %MON land_Tgr1_ave_N              =   1.8166455015144E+00
(PID.TID 0000.0001) %MON land_Tgr1_min_S              =   3.1208811172140E+01
(PID.TID 0000.0001) %MON land_Tgr1_min_T              =   2.5977076242061E+01
(PID.TID 0000.0001) %MON land_Tgr1_min_N              =  -1.9957343681137E+01
(PID.TID 0000.0001) %MON land_Tgr1_max_S              =   4.0283945178517E+01
(PID.TID 0000.0001) %MON land_Tgr1_max_T              =   3.0725081469228E+01
(PID.TID 0000.0001) %MON land_Tgr1_max_N              =   2.9152668981473E+01
(PID.TID 0000.0001) %MON land_Tgr2_ave_G              =   1.8545839232086E+01
(PID.TID 0000.0001) %MON land_Tgr2_ave_S              =   2.5503421124337E+01
(PID.TID 0000.0001) %MON land_Tgr2_ave_T              =   2.8640390035715E+01
(PID.TID 0000.0001) %MON land_Tgr2_ave_N              =   1.0251796107052E+01
(PID.TID 0000.0001) %MON land_Tgr2_min_S              =   2.1469959597678E+01
(PID.TID 0000.0001) %MON land_Tgr2_min_T              =   2.7869746075802E+01
(PID.TID 0000.0001) %MON land_Tgr2_min_N              =  -3.4956701685522E+00
(PID.TID 0000.0001) %MON land_Tgr2_max_S              =   2.8424684171478E+01
(PID.TID 0000.0001) %MON land_Tgr2_max_T              =   3.0669109564396E+01
(PID.TID 0000.0001) %MON land_Tgr2_max_N              =   3.1151932464436E+01
(PID.TID 0000.0001) %MON land_TotEnerg_G              =   1.0749237001744E+21
(PID.TID 0000.0001) %MON land_TotEnerg_S              =   1.3489571642493E+20
(PID.TID 0000.0001) %MON land_TotEnerg_T              =   9.7292704835931E+20
(PID.TID 0000.0001) %MON land_TotEnerg_N              =  -3.2899064609833E+19
(PID.TID 0000.0001) %MON land_grdW_ave_G              =   7.0725738088335E-01
(PID.TID 0000.0001) %MON land_grdW_ave_S              =   1.2696498611999E-01
(PID.TID 0000.0001) %MON land_grdW_ave_T              =   7.6802405314232E-01
(PID.TID 0000.0001) %MON land_grdW_ave_N              =   7.5983408955393E-01
(PID.TID 0000.0001) %MON land_grdW_min_S              =   1.5988776105829E-02
(PID.TID 0000.0001) %MON land_grdW_min_T              =   1.3119533501352E-01
(PID.TID 0000.0001) %MON land_grdW_min_N              =   4.5358622429960E-02
(PID.TID 0000.0001) // =======================================================
(PID.TID 0000.0001) // End MONITOR Land statistics
(PID.TID 0000.0001) // =======================================================
(PID.TID 0000.0001) // =======================================================
(PID.TID 0000.0001) // Begin MONITOR Therm.SeaIce statistics
(PID.TID 0000.0001) // =======================================================
(PID.TID 0000.0001) %MON thSI_time_sec                =   6.6749184000000E+11
(PID.TID 0000.0001) %MON thSI_Ice_Area_G              =   4.9783259567994E+13
(PID.TID 0000.0001) %MON thSI_Ice_Area_S              =   4.9783259567994E+13
(PID.TID 0000.0001) %MON thSI_Ice_Area_N              =   0.0000000000000E+00
(PID.TID 0000.0001) %MON thSI_IceH_ave_G              =   9.9169068601033E+00
(PID.TID 0000.0001) %MON thSI_IceH_ave_S              =   9.9169068601033E+00
(PID.TID 0000.0001) %MON thSI_IceH_ave_N              =   0.0000000000000E+00
(PID.TID 0000.0001) %MON thSI_IceH_max_S              =   2.2476257130492E+01
(PID.TID 0000.0001) %MON thSI_IceH_max_N              =   0.0000000000000E+00
(PID.TID 0000.0001) %MON thSI_SnwH_ave_G              =   4.9419934781107E-02
(PID.TID 0000.0001) %MON thSI_SnwH_ave_S              =   4.9419934781107E-02
(PID.TID 0000.0001) %MON thSI_SnwH_ave_N              =   0.0000000000000E+00
(PID.TID 0000.0001) %MON thSI_SnwH_max_S              =   3.2332392311474E-01
(PID.TID 0000.0001) %MON thSI_SnwH_max_N              =   0.0000000000000E+00
(PID.TID 0000.0001) %MON thSI_Tsrf_ave_G              =  -8.3866210666116E-01
(PID.TID 0000.0001) %MON thSI_Tsrf_ave_S              =  -8.3866210666116E-01
(PID.TID 0000.0001) %MON thSI_Tsrf_ave_N              =   0.0000000000000E+00
(PID.TID 0000.0001) %MON thSI_Tsrf_min_S              =  -8.7844666961224E+00
(PID.TID 0000.0001) %MON thSI_Tsrf_min_N              =   0.0000000000000E+00
(PID.TID 0000.0001) %MON thSI_Tsrf_max_S              =   0.0000000000000E+00
(PID.TID 0000.0001) %MON thSI_Tsrf_max_N              =   0.0000000000000E+00
(PID.TID 0000.0001) %MON thSI_Tic1_ave_G              =  -1.4106804732812E+01
(PID.TID 0000.0001) %MON thSI_Tic1_ave_S              =  -1.4106804732812E+01
(PID.TID 0000.0001) %MON thSI_Tic1_ave_N              =   0.0000000000000E+00
(PID.TID 0000.0001) %MON thSI_Tic1_min_S              =  -1.9928327400790E+01
(PID.TID 0000.0001) %MON thSI_Tic1_min_N              =   0.0000000000000E+00
(PID.TID 0000.0001) %MON thSI_Tic1_max_S              =  -1.4199081625470E-01
(PID.TID 0000.0001) %MON thSI_Tic1_max_N              =   0.0000000000000E+00
(PID.TID 0000.0001) %MON thSI_Tic2_ave_G              =  -6.1614942259948E+00
(PID.TID 0000.0001) %MON thSI_Tic2_ave_S              =  -6.1614942259948E+00
(PID.TID 0000.0001) %MON thSI_Tic2_ave_N              =   0.0000000000000E+00
(PID.TID 0000.0001) %MON thSI_Tic2_min_S              =  -7.6251268458706E+00
(PID.TID 0000.0001) %MON thSI_Tic2_min_N              =   0.0000000000000E+00
(PID.TID 0000.0001) %MON thSI_Tic2_max_S              =  -1.2649055702526E-02
(PID.TID 0000.0001) %MON thSI_Tic2_max_N              =   0.0000000000000E+00
(PID.TID 0000.0001) %MON thSI_TotEnerg_G              =  -1.5755760499756E+23
(PID.TID 0000.0001) // =======================================================
(PID.TID 0000.0001) // End MONITOR Therm.SeaIce statistics
(PID.TID 0000.0001) // =======================================================
(PID.TID 0000.0001)  MDS_READ_FIELD: opening global file: DDrake.c24.L.Albedo_25pc.bin
(PID.TID 0000.0001)  MDS_READ_FIELD: opening global file: DDrake.c24.L.VegFrc_75pc.bin
(PID.TID 0000.0001)   Exporting atmospheric surf fluxes at iter= 556243200
(PID.TID 0000.0001)   Importing  oceanic surface fields at iter= 556243200
(PID.TID 0000.0001)  MDS_READVEC_LOC: open file: pickup_aimCo2.0556243200
(PID.TID 0000.0001) 
(PID.TID 0000.0001) // ===================================
(PID.TID 0000.0001) // AIM_DO_CO2: Read pickup pickup_aimCo2.0556243200
(PID.TID 0000.0001) atpco2_check = /* pCo2 from pickup file */
(PID.TID 0000.0001)                 3.260000000000000E-04
(PID.TID 0000.0001)     ;
(PID.TID 0000.0001) atm_pCO2 = /* pCo2 from atm_CO2_Moles */
(PID.TID 0000.0001)                 3.260000000000000E-04
(PID.TID 0000.0001)     ;
(PID.TID 0000.0001) SOLVE_FOR_PRESSURE: putPmEinXvector =    F
(PID.TID 0000.0001) SOLVE_FOR_PRESSURE: zeroPsNH=    F , zeroMeanPnh=    F
(PID.TID 0000.0001) SOLVE_FOR_PRESSURE: oldFreeSurfTerm =    F
 cg2d: Sum(rhs),rhsMax =  -2.18646018765867E-05  5.40192552665255E+03
(PID.TID 0000.0001)      cg2d_init_res =   9.32898038768964E+02
(PID.TID 0000.0001)      cg2d_iters(min,last) =      -1      23
(PID.TID 0000.0001)      cg2d_last_res =   4.04502000386419E-11
 cg3d: Sum(rhs),rhsMax =  -2.79153002796795E-13  1.81308786002695E+00
(PID.TID 0000.0001)      cg3d_init_res =   2.05631868977224E+00
(PID.TID 0000.0001)      cg3d_iters (last) =                 15
(PID.TID 0000.0001)      cg3d_last_res =   7.38029444955564E-05
(PID.TID 0000.0001) // =======================================================
(PID.TID 0000.0001) // Begin MONITOR dynamic field statistics
(PID.TID 0000.0001) // =======================================================
(PID.TID 0000.0001) %MON time_tsnumber                =             556243201
(PID.TID 0000.0001) %MON time_secondsf                =   6.6749184120000E+11
(PID.TID 0000.0001) %MON dynstat_eta_max              =   2.2411382536941E+03
(PID.TID 0000.0001) %MON dynstat_eta_min              =  -4.2909613276825E+03
(PID.TID 0000.0001) %MON dynstat_eta_mean             =   6.2209616752398E-09
(PID.TID 0000.0001) %MON dynstat_eta_sd               =   9.7853275862881E+02
(PID.TID 0000.0001) %MON dynstat_eta_del2             =   4.3340191093844E+00
(PID.TID 0000.0001) %MON dynstat_uvel_max             =   7.0499940581957E+01
(PID.TID 0000.0001) %MON dynstat_uvel_min             =  -6.0033632456906E+01
(PID.TID 0000.0001) %MON dynstat_uvel_mean            =   1.8291060777026E+00
(PID.TID 0000.0001) %MON dynstat_uvel_sd              =   1.2418586660598E+01
(PID.TID 0000.0001) %MON dynstat_uvel_del2            =   4.7763713224930E-02
(PID.TID 0000.0001) %MON dynstat_vvel_max             =   1.0114728987886E+02
(PID.TID 0000.0001) %MON dynstat_vvel_min             =  -5.4924472198412E+01
(PID.TID 0000.0001) %MON dynstat_vvel_mean            =   1.7860785390717E+00
(PID.TID 0000.0001) %MON dynstat_vvel_sd              =   1.2459387187716E+01
(PID.TID 0000.0001) %MON dynstat_vvel_del2            =   4.8141858859769E-02
(PID.TID 0000.0001) %MON dynstat_wvel_max             =   1.0874818870175E+00
(PID.TID 0000.0001) %MON dynstat_wvel_min             =  -8.1627569728062E-01
(PID.TID 0000.0001) %MON dynstat_wvel_mean            =  -6.7838584165439E-19
(PID.TID 0000.0001) %MON dynstat_wvel_sd              =   9.2416740659469E-02
(PID.TID 0000.0001) %MON dynstat_wvel_del2            =   1.3752301355637E-03
(PID.TID 0000.0001) %MON dynstat_theta_max            =   5.0190398328241E+02
(PID.TID 0000.0001) %MON dynstat_theta_min            =   2.6628529394714E+02
(PID.TID 0000.0001) %MON dynstat_theta_mean           =   3.3729699234675E+02
(PID.TID 0000.0001) %MON dynstat_theta_sd             =   4.8952315031425E+01
(PID.TID 0000.0001) %MON dynstat_theta_del2           =   2.6792120176190E-02
(PID.TID 0000.0001) %MON dynstat_salt_max             =   1.7792725349615E+01
(PID.TID 0000.0001) %MON dynstat_salt_min             =  -1.8617890356825E+00
(PID.TID 0000.0001) %MON dynstat_salt_mean            =   3.2341985955424E+00
(PID.TID 0000.0001) %MON dynstat_salt_sd              =   3.9652320452059E+00
(PID.TID 0000.0001) %MON dynstat_salt_del2            =   1.2058416503115E-02
(PID.TID 0000.0001) %MON trAdv_CFL_u_max              =   4.9387203638844E-01
(PID.TID 0000.0001) %MON trAdv_CFL_v_max              =   3.9793786845873E-01
(PID.TID 0000.0001) %MON trAdv_CFL_w_max              =   8.9927551858248E-02
(PID.TID 0000.0001) %MON advcfl_uvel_max              =   5.4425873886711E-01
(PID.TID 0000.0001) %MON advcfl_vvel_max              =   4.1602865798491E-01
(PID.TID 0000.0001) %MON advcfl_wvel_max              =   7.4570186538342E-02
(PID.TID 0000.0001) %MON advcfl_W_hf_max              =   1.3049782644210E-01
(PID.TID 0000.0001) %MON am_eta_mean                  =   2.4353145493883E+10
(PID.TID 0000.0001) %MON am_uZo_mean                  =   3.1470193062450E+11
(PID.TID 0000.0001) %MON am_tot_mean                  =   3.3905507611839E+11
(PID.TID 0000.0001) %MON pe_b_mean                    =   3.9772690329575E+00
(PID.TID 0000.0001) %MON ke_max                       =   5.0869485716089E+03
(PID.TID 0000.0001) %MON ke_mean                      =   1.5792693668567E+02
(PID.TID 0000.0001) %MON ke_vol                       =   5.0995454902520E+19
(PID.TID 0000.0001) %MON vort_r_min                   =  -2.8079471193996E-04
(PID.TID 0000.0001) %MON vort_r_max                   =   1.2588295953082E-04
(PID.TID 0000.0001) %MON vort_a_mean                  =   2.4511988419153E-21
(PID.TID 0000.0001) %MON vort_a_sd                    =   8.8840490753730E-05
(PID.TID 0000.0001) %MON vort_p_mean                  =   2.4511988419153E-21
(PID.TID 0000.0001) %MON vort_p_sd                    =   8.8840490753730E-05
(PID.TID 0000.0001) %MON surfExpan_theta_mean         =  -3.5571220737672E-03
(PID.TID 0000.0001) %MON surfExpan_salt_mean          =  -1.7138087227808E-03
(PID.TID 0000.0001) %MON surfExpan_Heat_mean          =  -3.5875568419301E-01
(PID.TID 0000.0001) %MON En_Budget_T2PE_mean          =   1.8674345783443E+00
(PID.TID 0000.0001) // =======================================================
(PID.TID 0000.0001) // End MONITOR dynamic field statistics
(PID.TID 0000.0001) // =======================================================
(PID.TID 0000.0001) // =======================================================
(PID.TID 0000.0001) // Begin MONITOR Land statistics
(PID.TID 0000.0001) // =======================================================
(PID.TID 0000.0001) %MON land_time_sec                =   6.6749184120000E+11
(PID.TID 0000.0001) %MON land_SnwH_ave_G              =   3.7996158623879E-03
(PID.TID 0000.0001) %MON land_SnwH_ave_S              =   0.0000000000000E+00
(PID.TID 0000.0001) %MON land_SnwH_ave_T              =   0.0000000000000E+00
(PID.TID 0000.0001) %MON land_SnwH_ave_N              =   7.1160492574345E-03
(PID.TID 0000.0001) %MON land_SnwH_max_S              =   0.0000000000000E+00
(PID.TID 0000.0001) %MON land_SnwH_max_T              =   0.0000000000000E+00
(PID.TID 0000.0001) %MON land_SnwH_max_N              =   7.3268698154934E-02
(PID.TID 0000.0001) %MON LAND : Area= 1.154115920E+13 ; Lat sep= -24.00  24.00
(PID.TID 0000.0001) %MON LAND : LatA= 1.015269897E+12 4.363485141E+12 6.162404164E+12
(PID.TID 0000.0001) %MON land_Tsrf_ave_G              =   1.4751769679387E+01
(PID.TID 0000.0001) %MON land_Tsrf_ave_S              =   3.5932897451342E+01
(PID.TID 0000.0001) %MON land_Tsrf_ave_T              =   2.8157503266533E+01
(PID.TID 0000.0001) %MON land_Tsrf_ave_N              =   1.7697778141513E+00
(PID.TID 0000.0001) %MON land_Tsrf_min_S              =   3.1236361334035E+01
(PID.TID 0000.0001) %MON land_Tsrf_min_T              =   2.5977711946894E+01
(PID.TID 0000.0001) %MON land_Tsrf_min_N              =  -1.9980847029689E+01
(PID.TID 0000.0001) %MON land_Tsrf_max_S              =   4.0363945457500E+01
(PID.TID 0000.0001) %MON land_Tsrf_max_T              =   3.0742403858302E+01
(PID.TID 0000.0001) %MON land_Tsrf_max_N              =   2.9103533347814E+01
(PID.TID 0000.0001) %MON land_Tgr1_ave_G              =   1.4774262043858E+01
(PID.TID 0000.0001) %MON land_Tgr1_ave_S              =   3.5932897451342E+01
(PID.TID 0000.0001) %MON land_Tgr1_ave_T              =   2.8157503266533E+01
(PID.TID 0000.0001) %MON land_Tgr1_ave_N              =   1.8119022760141E+00
(PID.TID 0000.0001) %MON land_Tgr1_min_S              =   3.1236361334035E+01
(PID.TID 0000.0001) %MON land_Tgr1_min_T              =   2.5977711946894E+01
(PID.TID 0000.0001) %MON land_Tgr1_min_N              =  -1.9954205904949E+01
(PID.TID 0000.0001) %MON land_Tgr1_max_S              =   4.0363945457500E+01
(PID.TID 0000.0001) %MON land_Tgr1_max_T              =   3.0742403858302E+01
(PID.TID 0000.0001) %MON land_Tgr1_max_N              =   2.9103533347814E+01
(PID.TID 0000.0001) %MON land_Tgr2_ave_G              =   1.8545756321259E+01
(PID.TID 0000.0001) %MON land_Tgr2_ave_S              =   2.5503963655567E+01
(PID.TID 0000.0001) %MON land_Tgr2_ave_T              =   2.8640371616980E+01
(PID.TID 0000.0001) %MON land_Tgr2_ave_N              =   1.0251564487579E+01
(PID.TID 0000.0001) %MON land_Tgr2_min_S              =   2.1470627087309E+01
(PID.TID 0000.0001) %MON land_Tgr2_min_T              =   2.7869754203069E+01
(PID.TID 0000.0001) %MON land_Tgr2_min_N              =  -3.4960685678111E+00
(PID.TID 0000.0001) %MON land_Tgr2_max_S              =   2.8425098489344E+01
(PID.TID 0000.0001) %MON land_Tgr2_max_T              =   3.0669032240501E+01
(PID.TID 0000.0001) %MON land_Tgr2_max_N              =   3.1151835312629E+01
(PID.TID 0000.0001) %MON land_TotEnerg_G              =   1.0749119775066E+21
(PID.TID 0000.0001) %MON land_TotEnerg_S              =   1.3490262580959E+20
(PID.TID 0000.0001) %MON land_TotEnerg_T              =   9.7292569183842E+20
(PID.TID 0000.0001) %MON land_TotEnerg_N              =  -3.2916340141401E+19
(PID.TID 0000.0001) %MON land_grdW_ave_G              =   7.0725356765607E-01
(PID.TID 0000.0001) %MON land_grdW_ave_S              =   1.2696408313740E-01
(PID.TID 0000.0001) %MON land_grdW_ave_T              =   7.6801585878307E-01
(PID.TID 0000.0001) %MON land_grdW_ave_N              =   7.5983289905637E-01
(PID.TID 0000.0001) %MON land_grdW_min_S              =   1.5914742978083E-02
(PID.TID 0000.0001) %MON land_grdW_min_T              =   1.3122435495296E-01
(PID.TID 0000.0001) %MON land_grdW_min_N              =   4.5290587636618E-02
(PID.TID 0000.0001) // =======================================================
(PID.TID 0000.0001) // End MONITOR Land statistics
(PID.TID 0000.0001) // =======================================================
(PID.TID 0000.0001) // =======================================================
(PID.TID 0000.0001) // Begin MONITOR Therm.SeaIce statistics
(PID.TID 0000.0001) // =======================================================
(PID.TID 0000.0001) %MON thSI_time_sec                =   6.6749184120000E+11
(PID.TID 0000.0001) %MON thSI_Ice_Area_G              =   4.9781658025813E+13
(PID.TID 0000.0001) %MON thSI_Ice_Area_S              =   4.9781658025813E+13
(PID.TID 0000.0001) %MON thSI_Ice_Area_N              =   0.0000000000000E+00
(PID.TID 0000.0001) %MON thSI_IceH_ave_G              =   9.9171473155778E+00
(PID.TID 0000.0001) %MON thSI_IceH_ave_S              =   9.9171473155778E+00
(PID.TID 0000.0001) %MON thSI_IceH_ave_N              =   0.0000000000000E+00
(PID.TID 0000.0001) %MON thSI_IceH_max_S              =   2.2476262608246E+01
(PID.TID 0000.0001) %MON thSI_IceH_max_N              =   0.0000000000000E+00
(PID.TID 0000.0001) %MON thSI_SnwH_ave_G              =   4.9340119887455E-02
(PID.TID 0000.0001) %MON thSI_SnwH_ave_S              =   4.9340119887455E-02
(PID.TID 0000.0001) %MON thSI_SnwH_ave_N              =   0.0000000000000E+00
(PID.TID 0000.0001) %MON thSI_SnwH_max_S              =   3.2308686519079E-01
(PID.TID 0000.0001) %MON thSI_SnwH_max_N              =   0.0000000000000E+00
(PID.TID 0000.0001) %MON thSI_Tsrf_ave_G              =  -1.0390603115563E+00
(PID.TID 0000.0001) %MON thSI_Tsrf_ave_S              =  -1.0390603115563E+00
(PID.TID 0000.0001) %MON thSI_Tsrf_ave_N              =   0.0000000000000E+00
(PID.TID 0000.0001) %MON thSI_Tsrf_min_S              =  -8.7816771046342E+00
(PID.TID 0000.0001) %MON thSI_Tsrf_min_N              =   0.0000000000000E+00
(PID.TID 0000.0001) %MON thSI_Tsrf_max_S              =   0.0000000000000E+00
(PID.TID 0000.0001) %MON thSI_Tsrf_max_N              =   0.0000000000000E+00
(PID.TID 0000.0001) %MON thSI_Tic1_ave_G              =  -1.4105859829262E+01
(PID.TID 0000.0001) %MON thSI_Tic1_ave_S              =  -1.4105859829262E+01
(PID.TID 0000.0001) %MON thSI_Tic1_ave_N              =   0.0000000000000E+00
(PID.TID 0000.0001) %MON thSI_Tic1_min_S              =  -1.9927880833732E+01
(PID.TID 0000.0001) %MON thSI_Tic1_min_N              =   0.0000000000000E+00
(PID.TID 0000.0001) %MON thSI_Tic1_max_S              =  -1.4238973589073E-01
(PID.TID 0000.0001) %MON thSI_Tic1_max_N              =   0.0000000000000E+00
(PID.TID 0000.0001) %MON thSI_Tic2_ave_G              =  -6.1614329738829E+00
(PID.TID 0000.0001) %MON thSI_Tic2_ave_S              =  -6.1614329738829E+00
(PID.TID 0000.0001) %MON thSI_Tic2_ave_N              =   0.0000000000000E+00
(PID.TID 0000.0001) %MON thSI_Tic2_min_S              =  -7.6251289990035E+00
(PID.TID 0000.0001) %MON thSI_Tic2_min_N              =   0.0000000000000E+00
(PID.TID 0000.0001) %MON thSI_Tic2_max_S              =  -8.0365997707476E-03
(PID.TID 0000.0001) %MON thSI_Tic2_max_N              =   0.0000000000000E+00
(PID.TID 0000.0001) %MON thSI_TotEnerg_G              =  -1.5755519263417E+23
(PID.TID 0000.0001) // =======================================================
(PID.TID 0000.0001) // End MONITOR Therm.SeaIce statistics
(PID.TID 0000.0001) // =======================================================
 Compute Stats, Diag. #    187  SI_Fract  vol(   0 ): 5.100E+14  Parms: SM P    M1      
 Compute Stats, Diag. #    188  SI_Thick  vol(   0 ): 4.978E+13  Parms: SM PC   M1      
    use Counter Mate  #    187  SI_Fract  vol(   0 ): 5.100E+14 integral 4.978E+13
 Compute Stats, Diag. #    273  aim_pCO2  vol(   0 ): 5.100E+14  Parms: SM P    L1      
 Compute Stats, Diag. #    279  CPL_fCO2  vol(   0 ): 5.100E+14  Parms: SM      M1      
 Compute Stats, Diag. #    275  CPL_MxlD  vol(   0 ): 5.100E+14  Parms: SM      M1      
 Compute Stats, Diag. #    276  CPL_SST   vol(   0 ): 5.100E+14  Parms: SM      M1      
 Compute Stats, Diag. #    277  CPL_SSS   vol(   0 ): 5.100E+14  Parms: SM      M1      
 Compute Stats, Diag. #    278  CPL_Vel2  vol(   0 ): 5.100E+14  Parms: SM      M1      
 cg2d: Sum(rhs),rhsMax =  -2.18647182919085E-05  5.40229469106609E+03
(PID.TID 0000.0001)      cg2d_init_res =   9.10984950451497E+02
(PID.TID 0000.0001)      cg2d_iters(min,last) =      -1      23
(PID.TID 0000.0001)      cg2d_last_res =   3.96717937587949E-11
 cg3d: Sum(rhs),rhsMax =  -6.18550349829050E-14  2.28706246236546E+00
(PID.TID 0000.0001)      cg3d_init_res =   1.27863684055610E+00
(PID.TID 0000.0001)      cg3d_iters (last) =                 12
(PID.TID 0000.0001)      cg3d_last_res =   8.89571752105709E-05
(PID.TID 0000.0001) // =======================================================
(PID.TID 0000.0001) // Begin MONITOR dynamic field statistics
(PID.TID 0000.0001) // =======================================================
(PID.TID 0000.0001) %MON time_tsnumber                =             556243202
(PID.TID 0000.0001) %MON time_secondsf                =   6.6749184240000E+11
(PID.TID 0000.0001) %MON dynstat_eta_max              =   2.2405639480176E+03
(PID.TID 0000.0001) %MON dynstat_eta_min              =  -4.3002625434868E+03
(PID.TID 0000.0001) %MON dynstat_eta_mean             =   6.2208203104846E-09
(PID.TID 0000.0001) %MON dynstat_eta_sd               =   9.7854858814960E+02
(PID.TID 0000.0001) %MON dynstat_eta_del2             =   4.3349360462032E+00
(PID.TID 0000.0001) %MON dynstat_uvel_max             =   7.1197066273895E+01
(PID.TID 0000.0001) %MON dynstat_uvel_min             =  -6.0212404354348E+01
(PID.TID 0000.0001) %MON dynstat_uvel_mean            =   1.8301090780091E+00
(PID.TID 0000.0001) %MON dynstat_uvel_sd              =   1.2417547045441E+01
(PID.TID 0000.0001) %MON dynstat_uvel_del2            =   4.7736627724429E-02
(PID.TID 0000.0001) %MON dynstat_vvel_max             =   1.0133228012465E+02
(PID.TID 0000.0001) %MON dynstat_vvel_min             =  -5.4859321708067E+01
(PID.TID 0000.0001) %MON dynstat_vvel_mean            =   1.7867140664759E+00
(PID.TID 0000.0001) %MON dynstat_vvel_sd              =   1.2461535948522E+01
(PID.TID 0000.0001) %MON dynstat_vvel_del2            =   4.8160268119682E-02
(PID.TID 0000.0001) %MON dynstat_wvel_max             =   1.0790399406201E+00
(PID.TID 0000.0001) %MON dynstat_wvel_min             =  -7.8706168477843E-01
(PID.TID 0000.0001) %MON dynstat_wvel_mean            =   4.9182973519943E-18
(PID.TID 0000.0001) %MON dynstat_wvel_sd              =   9.2399942394802E-02
(PID.TID 0000.0001) %MON dynstat_wvel_del2            =   1.3826899584676E-03
(PID.TID 0000.0001) %MON dynstat_theta_max            =   5.0192922360543E+02
(PID.TID 0000.0001) %MON dynstat_theta_min            =   2.6626918911752E+02
(PID.TID 0000.0001) %MON dynstat_theta_mean           =   3.3729671534300E+02
(PID.TID 0000.0001) %MON dynstat_theta_sd             =   4.8952595630927E+01
(PID.TID 0000.0001) %MON dynstat_theta_del2           =   2.6802507894162E-02
(PID.TID 0000.0001) %MON dynstat_salt_max             =   1.7811094553265E+01
(PID.TID 0000.0001) %MON dynstat_salt_min             =  -1.8621037367227E+00
(PID.TID 0000.0001) %MON dynstat_salt_mean            =   3.2340835671867E+00
(PID.TID 0000.0001) %MON dynstat_salt_sd              =   3.9652022250771E+00
(PID.TID 0000.0001) %MON dynstat_salt_del2            =   1.2055197331005E-02
(PID.TID 0000.0001) %MON trAdv_CFL_u_max              =   4.9982416336817E-01
(PID.TID 0000.0001) %MON trAdv_CFL_v_max              =   4.0238820739348E-01
(PID.TID 0000.0001) %MON trAdv_CFL_w_max              =   9.0319599234414E-02
(PID.TID 0000.0001) %MON advcfl_uvel_max              =   5.4964054127424E-01
(PID.TID 0000.0001) %MON advcfl_vvel_max              =   4.1750237731709E-01
(PID.TID 0000.0001) %MON advcfl_wvel_max              =   7.3991310213947E-02
(PID.TID 0000.0001) %MON advcfl_W_hf_max              =   1.2948479287441E-01
(PID.TID 0000.0001) %MON am_eta_mean                  =   2.4361554952430E+10
(PID.TID 0000.0001) %MON am_uZo_mean                  =   3.1470377503930E+11
(PID.TID 0000.0001) %MON am_tot_mean                  =   3.3906532999173E+11
(PID.TID 0000.0001) %MON pe_b_mean                    =   3.9773977129051E+00
(PID.TID 0000.0001) %MON ke_max                       =   5.1144839491833E+03
(PID.TID 0000.0001) %MON ke_mean                      =   1.5794369151592E+02
(PID.TID 0000.0001) %MON ke_vol                       =   5.0995454902520E+19
(PID.TID 0000.0001) %MON vort_r_min                   =  -2.6967726318653E-04
(PID.TID 0000.0001) %MON vort_r_max                   =   1.2628566484046E-04
(PID.TID 0000.0001) %MON vort_a_mean                  =  -9.8047953676610E-20
(PID.TID 0000.0001) %MON vort_a_sd                    =   8.8841004257385E-05
(PID.TID 0000.0001) %MON vort_p_mean                  =  -9.8047953676610E-20
(PID.TID 0000.0001) %MON vort_p_sd                    =   8.8841004257385E-05
(PID.TID 0000.0001) %MON surfExpan_theta_mean         =  -3.5867151285907E-03
(PID.TID 0000.0001) %MON surfExpan_salt_mean          =  -1.6652868726289E-03
(PID.TID 0000.0001) %MON surfExpan_Heat_mean          =  -3.6174030951944E-01
(PID.TID 0000.0001) %MON En_Budget_T2PE_mean          =   1.8674580514831E+00
(PID.TID 0000.0001) // =======================================================
(PID.TID 0000.0001) // End MONITOR dynamic field statistics
(PID.TID 0000.0001) // =======================================================
(PID.TID 0000.0001) // =======================================================
(PID.TID 0000.0001) // Begin MONITOR Land statistics
(PID.TID 0000.0001) // =======================================================
(PID.TID 0000.0001) %MON land_time_sec                =   6.6749184240000E+11
(PID.TID 0000.0001) %MON land_SnwH_ave_G              =   3.8025377046008E-03
(PID.TID 0000.0001) %MON land_SnwH_ave_S              =   0.0000000000000E+00
(PID.TID 0000.0001) %MON land_SnwH_ave_T              =   0.0000000000000E+00
(PID.TID 0000.0001) %MON land_SnwH_ave_N              =   7.1215213824763E-03
(PID.TID 0000.0001) %MON land_SnwH_max_S              =   0.0000000000000E+00
(PID.TID 0000.0001) %MON land_SnwH_max_T              =   0.0000000000000E+00
(PID.TID 0000.0001) %MON land_SnwH_max_N              =   7.3268722265321E-02
(PID.TID 0000.0001) %MON land_Tsrf_ave_G              =   1.4753942916750E+01
(PID.TID 0000.0001) %MON land_Tsrf_ave_S              =   3.5965792318734E+01
(PID.TID 0000.0001) %MON land_Tsrf_ave_T              =   2.8162162346279E+01
(PID.TID 0000.0001) %MON land_Tsrf_ave_N              =   1.7651294148043E+00
(PID.TID 0000.0001) %MON land_Tsrf_min_S              =   3.1261833554419E+01
(PID.TID 0000.0001) %MON land_Tsrf_min_T              =   2.5978791924390E+01
(PID.TID 0000.0001) %MON land_Tsrf_min_N              =  -1.9977626005983E+01
(PID.TID 0000.0001) %MON land_Tsrf_max_S              =   4.0441472705770E+01
(PID.TID 0000.0001) %MON land_Tsrf_max_T              =   3.0760090193544E+01
(PID.TID 0000.0001) %MON land_Tsrf_max_N              =   2.9053627082956E+01
(PID.TID 0000.0001) %MON land_Tgr1_ave_G              =   1.4776750655896E+01
(PID.TID 0000.0001) %MON land_Tgr1_ave_S              =   3.5965792318734E+01
(PID.TID 0000.0001) %MON land_Tgr1_ave_T              =   2.8162162346279E+01
(PID.TID 0000.0001) %MON land_Tgr1_ave_N              =   1.8078445210389E+00
(PID.TID 0000.0001) %MON land_Tgr1_min_S              =   3.1261833554419E+01
(PID.TID 0000.0001) %MON land_Tgr1_min_T              =   2.5978791924390E+01
(PID.TID 0000.0001) %MON land_Tgr1_min_N              =  -1.9951054745057E+01
(PID.TID 0000.0001) %MON land_Tgr1_max_S              =   4.0441472705770E+01
(PID.TID 0000.0001) %MON land_Tgr1_max_T              =   3.0760090193544E+01
(PID.TID 0000.0001) %MON land_Tgr1_max_N              =   2.9053627082956E+01
(PID.TID 0000.0001) %MON land_Tgr2_ave_G              =   1.8545673408739E+01
(PID.TID 0000.0001) %MON land_Tgr2_ave_S              =   2.5504508050854E+01
(PID.TID 0000.0001) %MON land_Tgr2_ave_T              =   2.8640353364481E+01
(PID.TID 0000.0001) %MON land_Tgr2_ave_N              =   1.0251332440120E+01
(PID.TID 0000.0001) %MON land_Tgr2_min_S              =   2.1471296124812E+01
(PID.TID 0000.0001) %MON land_Tgr2_min_T              =   2.7869762382810E+01
(PID.TID 0000.0001) %MON land_Tgr2_min_N              =  -3.4964673414065E+00
(PID.TID 0000.0001) %MON land_Tgr2_max_S              =   2.8425514989241E+01
(PID.TID 0000.0001) %MON land_Tgr2_max_T              =   3.0668954153937E+01
(PID.TID 0000.0001) %MON land_Tgr2_max_N              =   3.1151735821349E+01
(PID.TID 0000.0001) %MON land_TotEnerg_G              =   1.0748999748391E+21
(PID.TID 0000.0001) %MON land_TotEnerg_S              =   1.3490949205379E+20
(PID.TID 0000.0001) %MON land_TotEnerg_T              =   9.7292323307701E+20
(PID.TID 0000.0001) %MON land_TotEnerg_N              =  -3.2932750291698E+19
(PID.TID 0000.0001) %MON land_grdW_ave_G              =   7.0724892503783E-01
(PID.TID 0000.0001) %MON land_grdW_ave_S              =   1.2696337066393E-01
(PID.TID 0000.0001) %MON land_grdW_ave_T              =   7.6800512644749E-01
(PID.TID 0000.0001) %MON land_grdW_ave_N              =   7.5983192095489E-01
(PID.TID 0000.0001) %MON land_grdW_min_S              =   1.5840619939633E-02
(PID.TID 0000.0001) %MON land_grdW_min_T              =   1.3125700977139E-01
(PID.TID 0000.0001) %MON land_grdW_min_N              =   4.5223303218545E-02
(PID.TID 0000.0001) // =======================================================
(PID.TID 0000.0001) // End MONITOR Land statistics
(PID.TID 0000.0001) // =======================================================
(PID.TID 0000.0001) // =======================================================
(PID.TID 0000.0001) // Begin MONITOR Therm.SeaIce statistics
(PID.TID 0000.0001) // =======================================================
(PID.TID 0000.0001) %MON thSI_time_sec                =   6.6749184240000E+11
(PID.TID 0000.0001) %MON thSI_Ice_Area_G              =   4.9780054040904E+13
(PID.TID 0000.0001) %MON thSI_Ice_Area_S              =   4.9780054040904E+13
(PID.TID 0000.0001) %MON thSI_Ice_Area_N              =   0.0000000000000E+00
(PID.TID 0000.0001) %MON thSI_IceH_ave_G              =   9.9173839334756E+00
(PID.TID 0000.0001) %MON thSI_IceH_ave_S              =   9.9173839334756E+00
(PID.TID 0000.0001) %MON thSI_IceH_ave_N              =   0.0000000000000E+00
(PID.TID 0000.0001) %MON thSI_IceH_max_S              =   2.2476268086001E+01
(PID.TID 0000.0001) %MON thSI_IceH_max_N              =   0.0000000000000E+00
(PID.TID 0000.0001) %MON thSI_SnwH_ave_G              =   4.9260390318279E-02
(PID.TID 0000.0001) %MON thSI_SnwH_ave_S              =   4.9260390318279E-02
(PID.TID 0000.0001) %MON thSI_SnwH_ave_N              =   0.0000000000000E+00
(PID.TID 0000.0001) %MON thSI_SnwH_max_S              =   3.2285363834649E-01
(PID.TID 0000.0001) %MON thSI_SnwH_max_N              =   0.0000000000000E+00
(PID.TID 0000.0001) %MON thSI_Tsrf_ave_G              =  -8.1309258492048E-01
(PID.TID 0000.0001) %MON thSI_Tsrf_ave_S              =  -8.1309258492048E-01
(PID.TID 0000.0001) %MON thSI_Tsrf_ave_N              =   0.0000000000000E+00
(PID.TID 0000.0001) %MON thSI_Tsrf_min_S              =  -8.7847438869462E+00
(PID.TID 0000.0001) %MON thSI_Tsrf_min_N              =   0.0000000000000E+00
(PID.TID 0000.0001) %MON thSI_Tsrf_max_S              =   0.0000000000000E+00
(PID.TID 0000.0001) %MON thSI_Tsrf_max_N              =   0.0000000000000E+00
(PID.TID 0000.0001) %MON thSI_Tic1_ave_G              =  -1.4105150523467E+01
(PID.TID 0000.0001) %MON thSI_Tic1_ave_S              =  -1.4105150523467E+01
(PID.TID 0000.0001) %MON thSI_Tic1_ave_N              =   0.0000000000000E+00
(PID.TID 0000.0001) %MON thSI_Tic1_min_S              =  -1.9927434174285E+01
(PID.TID 0000.0001) %MON thSI_Tic1_min_N              =   0.0000000000000E+00
(PID.TID 0000.0001) %MON thSI_Tic1_max_S              =  -1.4268605095164E-01
(PID.TID 0000.0001) %MON thSI_Tic1_max_N              =   0.0000000000000E+00
(PID.TID 0000.0001) %MON thSI_Tic2_ave_G              =  -6.1613829220068E+00
(PID.TID 0000.0001) %MON thSI_Tic2_ave_S              =  -6.1613829220068E+00
(PID.TID 0000.0001) %MON thSI_Tic2_ave_N              =   0.0000000000000E+00
(PID.TID 0000.0001) %MON thSI_Tic2_min_S              =  -7.6251311401110E+00
(PID.TID 0000.0001) %MON thSI_Tic2_min_N              =   0.0000000000000E+00
(PID.TID 0000.0001) %MON thSI_Tic2_max_S              =  -1.5461112375723E-02
(PID.TID 0000.0001) %MON thSI_Tic2_max_N              =   0.0000000000000E+00
(PID.TID 0000.0001) %MON thSI_TotEnerg_G              =  -1.5755292646262E+23
(PID.TID 0000.0001) // =======================================================
(PID.TID 0000.0001) // End MONITOR Therm.SeaIce statistics
(PID.TID 0000.0001) // =======================================================
 cg2d: Sum(rhs),rhsMax =  -2.18644854612648E-05  5.39353385517379E+03
(PID.TID 0000.0001)      cg2d_init_res =   9.11144001687962E+02
(PID.TID 0000.0001)      cg2d_iters(min,last) =      -1      23
(PID.TID 0000.0001)      cg2d_last_res =   3.97388756412432E-11
 cg3d: Sum(rhs),rhsMax =  -4.17062218094344E-14  2.90183788641010E+00
(PID.TID 0000.0001)      cg3d_init_res =   9.68972824281761E-01
(PID.TID 0000.0001)      cg3d_iters (last) =                 12
(PID.TID 0000.0001)      cg3d_last_res =   7.29812577298865E-05
(PID.TID 0000.0001) // =======================================================
(PID.TID 0000.0001) // Begin MONITOR dynamic field statistics
(PID.TID 0000.0001) // =======================================================
(PID.TID 0000.0001) %MON time_tsnumber                =             556243203
(PID.TID 0000.0001) %MON time_secondsf                =   6.6749184360000E+11
(PID.TID 0000.0001) %MON dynstat_eta_max              =   2.2400538188990E+03
(PID.TID 0000.0001) %MON dynstat_eta_min              =  -4.3092761144290E+03
(PID.TID 0000.0001) %MON dynstat_eta_mean             =   6.2208845671915E-09
(PID.TID 0000.0001) %MON dynstat_eta_sd               =   9.7856227752568E+02
(PID.TID 0000.0001) %MON dynstat_eta_del2             =   4.3362049982616E+00
(PID.TID 0000.0001) %MON dynstat_uvel_max             =   7.1742155165340E+01
(PID.TID 0000.0001) %MON dynstat_uvel_min             =  -6.0365123993806E+01
(PID.TID 0000.0001) %MON dynstat_uvel_mean            =   1.8310647474717E+00
(PID.TID 0000.0001) %MON dynstat_uvel_sd              =   1.2416484102570E+01
(PID.TID 0000.0001) %MON dynstat_uvel_del2            =   4.7707661869445E-02
(PID.TID 0000.0001) %MON dynstat_vvel_max             =   1.0149396006971E+02
(PID.TID 0000.0001) %MON dynstat_vvel_min             =  -5.4776972559315E+01
(PID.TID 0000.0001) %MON dynstat_vvel_mean            =   1.7873198336868E+00
(PID.TID 0000.0001) %MON dynstat_vvel_sd              =   1.2463722901783E+01
(PID.TID 0000.0001) %MON dynstat_vvel_del2            =   4.8177889565260E-02
(PID.TID 0000.0001) %MON dynstat_wvel_max             =   1.0603381954300E+00
(PID.TID 0000.0001) %MON dynstat_wvel_min             =  -8.3995743037245E-01
(PID.TID 0000.0001) %MON dynstat_wvel_mean            =  -5.9358761144759E-19
(PID.TID 0000.0001) %MON dynstat_wvel_sd              =   9.2422233501614E-02
(PID.TID 0000.0001) %MON dynstat_wvel_del2            =   1.3947912402039E-03
(PID.TID 0000.0001) %MON dynstat_theta_max            =   5.0195335657844E+02
(PID.TID 0000.0001) %MON dynstat_theta_min            =   2.6625301801869E+02
(PID.TID 0000.0001) %MON dynstat_theta_mean           =   3.3729648409534E+02
(PID.TID 0000.0001) %MON dynstat_theta_sd             =   4.8952859667494E+01
(PID.TID 0000.0001) %MON dynstat_theta_del2           =   2.6816415972279E-02
(PID.TID 0000.0001) %MON dynstat_salt_max             =   1.7829045001170E+01
(PID.TID 0000.0001) %MON dynstat_salt_min             =  -1.8611137762004E+00
(PID.TID 0000.0001) %MON dynstat_salt_mean            =   3.2339479734782E+00
(PID.TID 0000.0001) %MON dynstat_salt_sd              =   3.9650819038222E+00
(PID.TID 0000.0001) %MON dynstat_salt_del2            =   1.2049428719702E-02
(PID.TID 0000.0001) %MON trAdv_CFL_u_max              =   5.0631308307827E-01
(PID.TID 0000.0001) %MON trAdv_CFL_v_max              =   4.0636714915133E-01
(PID.TID 0000.0001) %MON trAdv_CFL_w_max              =   8.9955925946498E-02
(PID.TID 0000.0001) %MON advcfl_uvel_max              =   5.5384862131203E-01
(PID.TID 0000.0001) %MON advcfl_vvel_max              =   4.1761827319743E-01
(PID.TID 0000.0001) %MON advcfl_wvel_max              =   7.2708904829483E-02
(PID.TID 0000.0001) %MON advcfl_W_hf_max              =   1.2724058345160E-01
(PID.TID 0000.0001) %MON am_eta_mean                  =   2.4369909337136E+10
(PID.TID 0000.0001) %MON am_uZo_mean                  =   3.1470559832078E+11
(PID.TID 0000.0001) %MON am_tot_mean                  =   3.3907550765792E+11
(PID.TID 0000.0001) %MON pe_b_mean                    =   3.9775089970551E+00
(PID.TID 0000.0001) %MON ke_max                       =   5.1407268312484E+03
(PID.TID 0000.0001) %MON ke_mean                      =   1.5796049630937E+02
(PID.TID 0000.0001) %MON ke_vol                       =   5.0995454902520E+19
(PID.TID 0000.0001) %MON vort_r_min                   =  -2.5747190093096E-04
(PID.TID 0000.0001) %MON vort_r_max                   =   1.4901196616249E-04
(PID.TID 0000.0001) %MON vort_a_mean                  =  -1.0049915251853E-19
(PID.TID 0000.0001) %MON vort_a_sd                    =   8.8841709093283E-05
(PID.TID 0000.0001) %MON vort_p_mean                  =  -1.0049915251853E-19
(PID.TID 0000.0001) %MON vort_p_sd                    =   8.8841709093283E-05
(PID.TID 0000.0001) %MON surfExpan_theta_mean         =  -3.5980267706875E-03
(PID.TID 0000.0001) %MON surfExpan_salt_mean          =  -1.6571852777191E-03
(PID.TID 0000.0001) %MON surfExpan_Heat_mean          =  -3.6288115198019E-01
(PID.TID 0000.0001) %MON En_Budget_T2PE_mean          =   1.8678840322813E+00
(PID.TID 0000.0001) // =======================================================
(PID.TID 0000.0001) // End MONITOR dynamic field statistics
(PID.TID 0000.0001) // =======================================================
(PID.TID 0000.0001) // =======================================================
(PID.TID 0000.0001) // Begin MONITOR Land statistics
(PID.TID 0000.0001) // =======================================================
(PID.TID 0000.0001) %MON land_time_sec                =   6.6749184360000E+11
(PID.TID 0000.0001) %MON land_SnwH_ave_G              =   3.8053727437550E-03
(PID.TID 0000.0001) %MON land_SnwH_ave_S              =   0.0000000000000E+00
(PID.TID 0000.0001) %MON land_SnwH_ave_T              =   0.0000000000000E+00
(PID.TID 0000.0001) %MON land_SnwH_ave_N              =   7.1268309398101E-03
(PID.TID 0000.0001) %MON land_SnwH_max_S              =   0.0000000000000E+00
(PID.TID 0000.0001) %MON land_SnwH_max_T              =   0.0000000000000E+00
(PID.TID 0000.0001) %MON land_SnwH_max_N              =   7.3268745503978E-02
(PID.TID 0000.0001) %MON land_Tsrf_ave_G              =   1.4756790282347E+01
(PID.TID 0000.0001) %MON land_Tsrf_ave_S              =   3.5998355346902E+01
(PID.TID 0000.0001) %MON land_Tsrf_ave_T              =   2.8167505032686E+01
(PID.TID 0000.0001) %MON land_Tsrf_ave_N              =   1.7613141675868E+00
(PID.TID 0000.0001) %MON land_Tsrf_min_S              =   3.1285428364494E+01
(PID.TID 0000.0001) %MON land_Tsrf_min_T              =   2.5980430482148E+01
(PID.TID 0000.0001) %MON land_Tsrf_min_N              =  -1.9974405326395E+01
(PID.TID 0000.0001) %MON land_Tsrf_max_S              =   4.0516682263644E+01
(PID.TID 0000.0001) %MON land_Tsrf_max_T              =   3.0778243981230E+01
(PID.TID 0000.0001) %MON land_Tsrf_max_N              =   2.9004627227655E+01
(PID.TID 0000.0001) %MON land_Tgr1_ave_G              =   1.4779894000291E+01
(PID.TID 0000.0001) %MON land_Tgr1_ave_S              =   3.5998355346902E+01
(PID.TID 0000.0001) %MON land_Tgr1_ave_T              =   2.8167505032686E+01
(PID.TID 0000.0001) %MON land_Tgr1_ave_N              =   1.8045835929375E+00
(PID.TID 0000.0001) %MON land_Tgr1_min_S              =   3.1285428364494E+01
(PID.TID 0000.0001) %MON land_Tgr1_min_T              =   2.5980430482148E+01
(PID.TID 0000.0001) %MON land_Tgr1_min_N              =  -1.9947895625768E+01
(PID.TID 0000.0001) %MON land_Tgr1_max_S              =   4.0516682263644E+01
(PID.TID 0000.0001) %MON land_Tgr1_max_T              =   3.0778243981230E+01
(PID.TID 0000.0001) %MON land_Tgr1_max_N              =   2.9004627227655E+01
(PID.TID 0000.0001) %MON land_Tgr2_ave_G              =   1.8545590522775E+01
(PID.TID 0000.0001) %MON land_Tgr2_ave_S              =   2.5505054275674E+01
(PID.TID 0000.0001) %MON land_Tgr2_ave_T              =   2.8640335291394E+01
(PID.TID 0000.0001) %MON land_Tgr2_ave_N              =   1.0251100013937E+01
(PID.TID 0000.0001) %MON land_Tgr2_min_S              =   2.1471966902757E+01
(PID.TID 0000.0001) %MON land_Tgr2_min_T              =   2.7869770622470E+01
(PID.TID 0000.0001) %MON land_Tgr2_min_N              =  -3.4968664952746E+00
(PID.TID 0000.0001) %MON land_Tgr2_max_S              =   2.8425933646813E+01
(PID.TID 0000.0001) %MON land_Tgr2_max_T              =   3.0668875301800E+01
(PID.TID 0000.0001) %MON land_Tgr2_max_N              =   3.1151634033078E+01
(PID.TID 0000.0001) %MON land_TotEnerg_G              =   1.0748900193232E+21
(PID.TID 0000.0001) %MON land_TotEnerg_S              =   1.3491633885904E+20
(PID.TID 0000.0001) %MON land_TotEnerg_T              =   9.7292209952561E+20
(PID.TID 0000.0001) %MON land_TotEnerg_N              =  -3.2948419061461E+19
(PID.TID 0000.0001) %MON land_grdW_ave_G              =   7.0724480095398E-01
(PID.TID 0000.0001) %MON land_grdW_ave_S              =   1.2696286647815E-01
(PID.TID 0000.0001) %MON land_grdW_ave_T              =   7.6799589452022E-01
(PID.TID 0000.0001) %MON land_grdW_ave_N              =   7.5983081725479E-01
(PID.TID 0000.0001) %MON land_grdW_min_S              =   1.5766492070188E-02
(PID.TID 0000.0001) %MON land_grdW_min_T              =   1.3129335118112E-01
(PID.TID 0000.0001) %MON land_grdW_min_N              =   4.5156855267723E-02
(PID.TID 0000.0001) // =======================================================
(PID.TID 0000.0001) // End MONITOR Land statistics
(PID.TID 0000.0001) // =======================================================
(PID.TID 0000.0001) // =======================================================
(PID.TID 0000.0001) // Begin MONITOR Therm.SeaIce statistics
(PID.TID 0000.0001) // =======================================================
(PID.TID 0000.0001) %MON thSI_time_sec                =   6.6749184360000E+11
(PID.TID 0000.0001) %MON thSI_Ice_Area_G              =   4.9778457828733E+13
(PID.TID 0000.0001) %MON thSI_Ice_Area_S              =   4.9778457828733E+13
(PID.TID 0000.0001) %MON thSI_Ice_Area_N              =   0.0000000000000E+00
(PID.TID 0000.0001) %MON thSI_IceH_ave_G              =   9.9176188372139E+00
(PID.TID 0000.0001) %MON thSI_IceH_ave_S              =   9.9176188372139E+00
(PID.TID 0000.0001) %MON thSI_IceH_ave_N              =   0.0000000000000E+00
(PID.TID 0000.0001) %MON thSI_IceH_max_S              =   2.2476273563754E+01
(PID.TID 0000.0001) %MON thSI_IceH_max_N              =   0.0000000000000E+00
(PID.TID 0000.0001) %MON thSI_SnwH_ave_G              =   4.9181196340005E-02
(PID.TID 0000.0001) %MON thSI_SnwH_ave_S              =   4.9181196340005E-02
(PID.TID 0000.0001) %MON thSI_SnwH_ave_N              =   0.0000000000000E+00
(PID.TID 0000.0001) %MON thSI_SnwH_max_S              =   3.2262429793357E-01
(PID.TID 0000.0001) %MON thSI_SnwH_max_N              =   0.0000000000000E+00
(PID.TID 0000.0001) %MON thSI_Tsrf_ave_G              =  -8.3983050809535E-01
(PID.TID 0000.0001) %MON thSI_Tsrf_ave_S              =  -8.3983050809535E-01
(PID.TID 0000.0001) %MON thSI_Tsrf_ave_N              =   0.0000000000000E+00
(PID.TID 0000.0001) %MON thSI_Tsrf_min_S              =  -8.7853241492177E+00
(PID.TID 0000.0001) %MON thSI_Tsrf_min_N              =   0.0000000000000E+00
(PID.TID 0000.0001) %MON thSI_Tsrf_max_S              =   0.0000000000000E+00
(PID.TID 0000.0001) %MON thSI_Tsrf_max_N              =   0.0000000000000E+00
(PID.TID 0000.0001) %MON thSI_Tic1_ave_G              =  -1.4104443956670E+01
(PID.TID 0000.0001) %MON thSI_Tic1_ave_S              =  -1.4104443956670E+01
(PID.TID 0000.0001) %MON thSI_Tic1_ave_N              =   0.0000000000000E+00
(PID.TID 0000.0001) %MON thSI_Tic1_min_S              =  -1.9926987458292E+01
(PID.TID 0000.0001) %MON thSI_Tic1_min_N              =   0.0000000000000E+00
(PID.TID 0000.0001) %MON thSI_Tic1_max_S              =  -1.4302211378159E-01
(PID.TID 0000.0001) %MON thSI_Tic1_max_N              =   0.0000000000000E+00
(PID.TID 0000.0001) %MON thSI_Tic2_ave_G              =  -6.1613262299843E+00
(PID.TID 0000.0001) %MON thSI_Tic2_ave_S              =  -6.1613262299843E+00
(PID.TID 0000.0001) %MON thSI_Tic2_ave_N              =   0.0000000000000E+00
(PID.TID 0000.0001) %MON thSI_Tic2_min_S              =  -7.6251332763734E+00
(PID.TID 0000.0001) %MON thSI_Tic2_min_N              =   0.0000000000000E+00
(PID.TID 0000.0001) %MON thSI_Tic2_max_S              =  -1.0817319622830E-02
(PID.TID 0000.0001) %MON thSI_Tic2_max_N              =   0.0000000000000E+00
(PID.TID 0000.0001) %MON thSI_TotEnerg_G              =  -1.5755066570628E+23
(PID.TID 0000.0001) // =======================================================
(PID.TID 0000.0001) // End MONITOR Therm.SeaIce statistics
(PID.TID 0000.0001) // =======================================================
(PID.TID 0000.0001)   Exporting atmospheric surf fluxes at iter= 556243203
(PID.TID 0000.0001)   Importing  oceanic surface fields at iter= 556243203
 cg2d: Sum(rhs),rhsMax =  -2.18646018765867E-05  5.38807449074256E+03
(PID.TID 0000.0001)      cg2d_init_res =   9.03094523522578E+02
(PID.TID 0000.0001)      cg2d_iters(min,last) =      -1      23
(PID.TID 0000.0001)      cg2d_last_res =   3.95247093630547E-11
 cg3d: Sum(rhs),rhsMax =   6.32011804002630E-14  3.39228886919147E+00
(PID.TID 0000.0001)      cg3d_init_res =   7.97198589811387E-01
(PID.TID 0000.0001)      cg3d_iters (last) =                 12
(PID.TID 0000.0001)      cg3d_last_res =   6.38699777431608E-05
(PID.TID 0000.0001) // =======================================================
(PID.TID 0000.0001) // Begin MONITOR dynamic field statistics
(PID.TID 0000.0001) // =======================================================
(PID.TID 0000.0001) %MON time_tsnumber                =             556243204
(PID.TID 0000.0001) %MON time_secondsf                =   6.6749184480000E+11
(PID.TID 0000.0001) %MON dynstat_eta_max              =   2.2395977480024E+03
(PID.TID 0000.0001) %MON dynstat_eta_min              =  -4.3179817867719E+03
(PID.TID 0000.0001) %MON dynstat_eta_mean             =   6.2208460131674E-09
(PID.TID 0000.0001) %MON dynstat_eta_sd               =   9.7857805890183E+02
(PID.TID 0000.0001) %MON dynstat_eta_del2             =   4.3376152220821E+00
(PID.TID 0000.0001) %MON dynstat_uvel_max             =   7.2067938081914E+01
(PID.TID 0000.0001) %MON dynstat_uvel_min             =  -6.0489973052915E+01
(PID.TID 0000.0001) %MON dynstat_uvel_mean            =   1.8319503724413E+00
(PID.TID 0000.0001) %MON dynstat_uvel_sd              =   1.2415395387879E+01
(PID.TID 0000.0001) %MON dynstat_uvel_del2            =   4.7680808200812E-02
(PID.TID 0000.0001) %MON dynstat_vvel_max             =   1.0164745830073E+02
(PID.TID 0000.0001) %MON dynstat_vvel_min             =  -5.4678959885353E+01
(PID.TID 0000.0001) %MON dynstat_vvel_mean            =   1.7879078780090E+00
(PID.TID 0000.0001) %MON dynstat_vvel_sd              =   1.2465941583679E+01
(PID.TID 0000.0001) %MON dynstat_vvel_del2            =   4.8189612373037E-02
(PID.TID 0000.0001) %MON dynstat_wvel_max             =   1.1258152012098E+00
(PID.TID 0000.0001) %MON dynstat_wvel_min             =  -1.1333151675103E+00
(PID.TID 0000.0001) %MON dynstat_wvel_mean            =   2.5439469062039E-19
(PID.TID 0000.0001) %MON dynstat_wvel_sd              =   9.2465681110359E-02
(PID.TID 0000.0001) %MON dynstat_wvel_del2            =   1.4105181639720E-03
(PID.TID 0000.0001) %MON dynstat_theta_max            =   5.0197641203950E+02
(PID.TID 0000.0001) %MON dynstat_theta_min            =   2.6623680307926E+02
(PID.TID 0000.0001) %MON dynstat_theta_mean           =   3.3729621466835E+02
(PID.TID 0000.0001) %MON dynstat_theta_sd             =   4.8953105567494E+01
(PID.TID 0000.0001) %MON dynstat_theta_del2           =   2.6830211572150E-02
(PID.TID 0000.0001) %MON dynstat_salt_max             =   1.7846608525287E+01
(PID.TID 0000.0001) %MON dynstat_salt_min             =  -1.8588608025105E+00
(PID.TID 0000.0001) %MON dynstat_salt_mean            =   3.2338251588851E+00
(PID.TID 0000.0001) %MON dynstat_salt_sd              =   3.9650200650830E+00
(PID.TID 0000.0001) %MON dynstat_salt_del2            =   1.2044801533834E-02
(PID.TID 0000.0001) %MON trAdv_CFL_u_max              =   5.1332911910432E-01
(PID.TID 0000.0001) %MON trAdv_CFL_v_max              =   4.0947831974364E-01
(PID.TID 0000.0001) %MON trAdv_CFL_w_max              =   8.8854011547597E-02
(PID.TID 0000.0001) %MON advcfl_uvel_max              =   5.5636366171994E-01
(PID.TID 0000.0001) %MON advcfl_vvel_max              =   4.1643992911996E-01
(PID.TID 0000.0001) %MON advcfl_wvel_max              =   7.0801957479353E-02
(PID.TID 0000.0001) %MON advcfl_W_hf_max              =   1.2390342558887E-01
(PID.TID 0000.0001) %MON am_eta_mean                  =   2.4378307365837E+10
(PID.TID 0000.0001) %MON am_uZo_mean                  =   3.1470731090577E+11
(PID.TID 0000.0001) %MON am_tot_mean                  =   3.3908561827160E+11
(PID.TID 0000.0001) %MON pe_b_mean                    =   3.9776372894965E+00
(PID.TID 0000.0001) %MON ke_max                       =   5.1653544297243E+03
(PID.TID 0000.0001) %MON ke_mean                      =   1.5797722888755E+02
(PID.TID 0000.0001) %MON ke_vol                       =   5.0995454902520E+19
(PID.TID 0000.0001) %MON vort_r_min                   =  -2.4468632509118E-04
(PID.TID 0000.0001) %MON vort_r_max                   =   1.9574510344820E-04
(PID.TID 0000.0001) %MON vort_a_mean                  =  -7.3535965257458E-21
(PID.TID 0000.0001) %MON vort_a_sd                    =   8.8842614767386E-05
(PID.TID 0000.0001) %MON vort_p_mean                  =  -7.3535965257458E-21
(PID.TID 0000.0001) %MON vort_p_sd                    =   8.8842614767386E-05
(PID.TID 0000.0001) %MON surfExpan_theta_mean         =  -3.5841380895564E-03
(PID.TID 0000.0001) %MON surfExpan_salt_mean          =  -1.6530622243066E-03
(PID.TID 0000.0001) %MON surfExpan_Heat_mean          =  -3.6148040069913E-01
(PID.TID 0000.0001) %MON En_Budget_T2PE_mean          =   1.8675203131083E+00
(PID.TID 0000.0001) // =======================================================
(PID.TID 0000.0001) // End MONITOR dynamic field statistics
(PID.TID 0000.0001) // =======================================================
(PID.TID 0000.0001) // =======================================================
(PID.TID 0000.0001) // Begin MONITOR Land statistics
(PID.TID 0000.0001) // =======================================================
(PID.TID 0000.0001) %MON land_time_sec                =   6.6749184480000E+11
(PID.TID 0000.0001) %MON land_SnwH_ave_G              =   3.8081148571428E-03
(PID.TID 0000.0001) %MON land_SnwH_ave_S              =   0.0000000000000E+00
(PID.TID 0000.0001) %MON land_SnwH_ave_T              =   0.0000000000000E+00
(PID.TID 0000.0001) %MON land_SnwH_ave_N              =   7.1319664626218E-03
(PID.TID 0000.0001) %MON land_SnwH_max_S              =   0.0000000000000E+00
(PID.TID 0000.0001) %MON land_SnwH_max_T              =   0.0000000000000E+00
(PID.TID 0000.0001) %MON land_SnwH_max_N              =   7.3268769132862E-02
(PID.TID 0000.0001) %MON land_Tsrf_ave_G              =   1.4761287667560E+01
(PID.TID 0000.0001) %MON land_Tsrf_ave_S              =   3.6030430339496E+01
(PID.TID 0000.0001) %MON land_Tsrf_ave_T              =   2.8173250974206E+01
(PID.TID 0000.0001) %MON land_Tsrf_ave_N              =   1.7603840004013E+00
(PID.TID 0000.0001) %MON land_Tsrf_min_S              =   3.1306898467996E+01
(PID.TID 0000.0001) %MON land_Tsrf_min_T              =   2.5982709184625E+01
(PID.TID 0000.0001) %MON land_Tsrf_min_N              =  -1.9971186491134E+01
(PID.TID 0000.0001) %MON land_Tsrf_max_S              =   4.0589722353511E+01
(PID.TID 0000.0001) %MON land_Tsrf_max_T              =   3.0796948014403E+01
(PID.TID 0000.0001) %MON land_Tsrf_max_N              =   2.8954447382009E+01
(PID.TID 0000.0001) %MON land_Tgr1_ave_G              =   1.4784677668113E+01
(PID.TID 0000.0001) %MON land_Tgr1_ave_S              =   3.6030430339496E+01
(PID.TID 0000.0001) %MON land_Tgr1_ave_T              =   2.8173250974206E+01
(PID.TID 0000.0001) %MON land_Tgr1_ave_N              =   1.8041895855158E+00
(PID.TID 0000.0001) %MON land_Tgr1_min_S              =   3.1306898467996E+01
(PID.TID 0000.0001) %MON land_Tgr1_min_T              =   2.5982709184625E+01
(PID.TID 0000.0001) %MON land_Tgr1_min_N              =  -1.9944732438705E+01
(PID.TID 0000.0001) %MON land_Tgr1_max_S              =   4.0589722353511E+01
(PID.TID 0000.0001) %MON land_Tgr1_max_T              =   3.0796948014403E+01
(PID.TID 0000.0001) %MON land_Tgr1_max_N              =   2.8954447382009E+01
(PID.TID 0000.0001) %MON land_Tgr2_ave_G              =   1.8545507730648E+01
(PID.TID 0000.0001) %MON land_Tgr2_ave_S              =   2.5505602286133E+01
(PID.TID 0000.0001) %MON land_Tgr2_ave_T              =   2.8640317414427E+01
(PID.TID 0000.0001) %MON land_Tgr2_ave_N              =   1.0250867330439E+01
(PID.TID 0000.0001) %MON land_Tgr2_min_S              =   2.1472639575904E+01
(PID.TID 0000.0001) %MON land_Tgr2_min_T              =   2.7869778929819E+01
(PID.TID 0000.0001) %MON land_Tgr2_min_N              =  -3.4972660354234E+00
(PID.TID 0000.0001) %MON land_Tgr2_max_S              =   2.8426354439144E+01
(PID.TID 0000.0001) %MON land_Tgr2_max_T              =   3.0668795687758E+01
(PID.TID 0000.0001) %MON land_Tgr2_max_N              =   3.1151529892681E+01
(PID.TID 0000.0001) %MON land_TotEnerg_G              =   1.0748802252629E+21
(PID.TID 0000.0001) %MON land_TotEnerg_S              =   1.3492314350269E+20
(PID.TID 0000.0001) %MON land_TotEnerg_T              =   9.7292100436342E+20
(PID.TID 0000.0001) %MON land_TotEnerg_N              =  -3.2963922603221E+19
(PID.TID 0000.0001) %MON land_grdW_ave_G              =   7.0724022758861E-01
(PID.TID 0000.0001) %MON land_grdW_ave_S              =   1.2696256360562E-01
(PID.TID 0000.0001) %MON land_grdW_ave_T              =   7.6798615469696E-01
(PID.TID 0000.0001) %MON land_grdW_ave_N              =   7.5982919859004E-01
(PID.TID 0000.0001) %MON land_grdW_min_S              =   1.5692452644063E-02
(PID.TID 0000.0001) %MON land_grdW_min_T              =   1.3133343817011E-01
(PID.TID 0000.0001) %MON land_grdW_min_N              =   4.5091321968785E-02
(PID.TID 0000.0001) // =======================================================
(PID.TID 0000.0001) // End MONITOR Land statistics
(PID.TID 0000.0001) // =======================================================
(PID.TID 0000.0001) // =======================================================
(PID.TID 0000.0001) // Begin MONITOR Therm.SeaIce statistics
(PID.TID 0000.0001) // =======================================================
(PID.TID 0000.0001) %MON thSI_time_sec                =   6.6749184480000E+11
(PID.TID 0000.0001) %MON thSI_Ice_Area_G              =   4.9776850334941E+13
(PID.TID 0000.0001) %MON thSI_Ice_Area_S              =   4.9776850334941E+13
(PID.TID 0000.0001) %MON thSI_Ice_Area_N              =   0.0000000000000E+00
(PID.TID 0000.0001) %MON thSI_IceH_ave_G              =   9.9178560793490E+00
(PID.TID 0000.0001) %MON thSI_IceH_ave_S              =   9.9178560793490E+00
(PID.TID 0000.0001) %MON thSI_IceH_ave_N              =   0.0000000000000E+00
(PID.TID 0000.0001) %MON thSI_IceH_max_S              =   2.2476279038497E+01
(PID.TID 0000.0001) %MON thSI_IceH_max_N              =   0.0000000000000E+00
(PID.TID 0000.0001) %MON thSI_SnwH_ave_G              =   4.9102075771994E-02
(PID.TID 0000.0001) %MON thSI_SnwH_ave_S              =   4.9102075771994E-02
(PID.TID 0000.0001) %MON thSI_SnwH_ave_N              =   0.0000000000000E+00
(PID.TID 0000.0001) %MON thSI_SnwH_max_S              =   3.2239885630934E-01
(PID.TID 0000.0001) %MON thSI_SnwH_max_N              =   0.0000000000000E+00
(PID.TID 0000.0001) %MON thSI_Tsrf_ave_G              =  -8.4504887078713E-01
(PID.TID 0000.0001) %MON thSI_Tsrf_ave_S              =  -8.4504887078713E-01
(PID.TID 0000.0001) %MON thSI_Tsrf_ave_N              =   0.0000000000000E+00
(PID.TID 0000.0001) %MON thSI_Tsrf_min_S              =  -8.7881351999878E+00
(PID.TID 0000.0001) %MON thSI_Tsrf_min_N              =   0.0000000000000E+00
(PID.TID 0000.0001) %MON thSI_Tsrf_max_S              =   0.0000000000000E+00
(PID.TID 0000.0001) %MON thSI_Tsrf_max_N              =   0.0000000000000E+00
(PID.TID 0000.0001) %MON thSI_Tic1_ave_G              =  -1.4103737646581E+01
(PID.TID 0000.0001) %MON thSI_Tic1_ave_S              =  -1.4103737646581E+01
(PID.TID 0000.0001) %MON thSI_Tic1_ave_N              =   0.0000000000000E+00
(PID.TID 0000.0001) %MON thSI_Tic1_min_S              =  -1.9926540685206E+01
(PID.TID 0000.0001) %MON thSI_Tic1_min_N              =   0.0000000000000E+00
(PID.TID 0000.0001) %MON thSI_Tic1_max_S              =  -1.4338652363511E-01
(PID.TID 0000.0001) %MON thSI_Tic1_max_N              =   0.0000000000000E+00
(PID.TID 0000.0001) %MON thSI_Tic2_ave_G              =  -6.1612722256524E+00
(PID.TID 0000.0001) %MON thSI_Tic2_ave_S              =  -6.1612722256524E+00
(PID.TID 0000.0001) %MON thSI_Tic2_ave_N              =   0.0000000000000E+00
(PID.TID 0000.0001) %MON thSI_Tic2_min_S              =  -7.6251354075464E+00
(PID.TID 0000.0001) %MON thSI_Tic2_min_N              =   0.0000000000000E+00
(PID.TID 0000.0001) %MON thSI_Tic2_max_S              =  -1.8230438769298E-02
(PID.TID 0000.0001) %MON thSI_Tic2_max_N              =   0.0000000000000E+00
(PID.TID 0000.0001) %MON thSI_TotEnerg_G              =  -1.5754840648283E+23
(PID.TID 0000.0001) // =======================================================
(PID.TID 0000.0001) // End MONITOR Therm.SeaIce statistics
(PID.TID 0000.0001) // =======================================================
 Compute Stats, Diag. #    187  SI_Fract  vol(   0 ): 5.100E+14  Parms: SM P    M1      
 Compute Stats, Diag. #    188  SI_Thick  vol(   0 ): 4.978E+13  Parms: SM PC   M1      
    use Counter Mate  #    187  SI_Fract  vol(   0 ): 5.100E+14 integral 4.978E+13
 Compute Stats, Diag. #    273  aim_pCO2  vol(   0 ): 5.100E+14  Parms: SM P    L1      
 Compute Stats, Diag. #    279  CPL_fCO2  vol(   0 ): 5.100E+14  Parms: SM      M1      
 Compute Stats, Diag. #    275  CPL_MxlD  vol(   0 ): 5.100E+14  Parms: SM      M1      
 Compute Stats, Diag. #    276  CPL_SST   vol(   0 ): 5.100E+14  Parms: SM      M1      
 Compute Stats, Diag. #    277  CPL_SSS   vol(   0 ): 5.100E+14  Parms: SM      M1      
 Compute Stats, Diag. #    278  CPL_Vel2  vol(   0 ): 5.100E+14  Parms: SM      M1      
 cg2d: Sum(rhs),rhsMax =  -2.18637869693339E-05  5.38428690075129E+03
(PID.TID 0000.0001)      cg2d_init_res =   9.26407653077629E+02
(PID.TID 0000.0001)      cg2d_iters(min,last) =      -1      23
(PID.TID 0000.0001)      cg2d_last_res =   4.02041891456942E-11
 cg3d: Sum(rhs),rhsMax =  -1.76230557924484E-13  3.67658803953705E+00
(PID.TID 0000.0001)      cg3d_init_res =   9.05131379580345E-01
(PID.TID 0000.0001)      cg3d_iters (last) =                 12
(PID.TID 0000.0001)      cg3d_last_res =   6.22921000402486E-05
(PID.TID 0000.0001) // =======================================================
(PID.TID 0000.0001) // Begin MONITOR dynamic field statistics
(PID.TID 0000.0001) // =======================================================
(PID.TID 0000.0001) %MON time_tsnumber                =             556243205
(PID.TID 0000.0001) %MON time_secondsf                =   6.6749184600000E+11
(PID.TID 0000.0001) %MON dynstat_eta_max              =   2.2391825602506E+03
(PID.TID 0000.0001) %MON dynstat_eta_min              =  -4.3263885576997E+03
(PID.TID 0000.0001) %MON dynstat_eta_mean             =   6.2207174997535E-09
(PID.TID 0000.0001) %MON dynstat_eta_sd               =   9.7859807716240E+02
(PID.TID 0000.0001) %MON dynstat_eta_del2             =   4.3391736939157E+00
(PID.TID 0000.0001) %MON dynstat_uvel_max             =   7.2110135758685E+01
(PID.TID 0000.0001) %MON dynstat_uvel_min             =  -6.0585337477704E+01
(PID.TID 0000.0001) %MON dynstat_uvel_mean            =   1.8327777075581E+00
(PID.TID 0000.0001) %MON dynstat_uvel_sd              =   1.2414319054218E+01
(PID.TID 0000.0001) %MON dynstat_uvel_del2            =   4.7661489095189E-02
(PID.TID 0000.0001) %MON dynstat_vvel_max             =   1.0195968102894E+02
(PID.TID 0000.0001) %MON dynstat_vvel_min             =  -5.4567090279570E+01
(PID.TID 0000.0001) %MON dynstat_vvel_mean            =   1.7884667954318E+00
(PID.TID 0000.0001) %MON dynstat_vvel_sd              =   1.2468157365424E+01
(PID.TID 0000.0001) %MON dynstat_vvel_del2            =   4.8189382706843E-02
(PID.TID 0000.0001) %MON dynstat_wvel_max             =   1.1633213972153E+00
(PID.TID 0000.0001) %MON dynstat_wvel_min             =  -1.4330399290959E+00
(PID.TID 0000.0001) %MON dynstat_wvel_mean            =   5.9358761144759E-19
(PID.TID 0000.0001) %MON dynstat_wvel_sd              =   9.2563252717324E-02
(PID.TID 0000.0001) %MON dynstat_wvel_del2            =   1.4290519942477E-03
(PID.TID 0000.0001) %MON dynstat_theta_max            =   5.0199842671864E+02
(PID.TID 0000.0001) %MON dynstat_theta_min            =   2.6622056107154E+02
(PID.TID 0000.0001) %MON dynstat_theta_mean           =   3.3729608515043E+02
(PID.TID 0000.0001) %MON dynstat_theta_sd             =   4.8953292500484E+01
(PID.TID 0000.0001) %MON dynstat_theta_del2           =   2.6845984660872E-02
(PID.TID 0000.0001) %MON dynstat_salt_max             =   1.7861142888449E+01
(PID.TID 0000.0001) %MON dynstat_salt_min             =  -1.8553817766616E+00
(PID.TID 0000.0001) %MON dynstat_salt_mean            =   3.2336475421624E+00
(PID.TID 0000.0001) %MON dynstat_salt_sd              =   3.9648070878517E+00
(PID.TID 0000.0001) %MON dynstat_salt_del2            =   1.2036295578370E-02
(PID.TID 0000.0001) %MON trAdv_CFL_u_max              =   5.2084416203868E-01
(PID.TID 0000.0001) %MON trAdv_CFL_v_max              =   4.1133777101009E-01
(PID.TID 0000.0001) %MON trAdv_CFL_w_max              =   9.1226661064681E-02
(PID.TID 0000.0001) %MON advcfl_uvel_max              =   5.5668942730432E-01
(PID.TID 0000.0001) %MON advcfl_vvel_max              =   4.1607832796876E-01
(PID.TID 0000.0001) %MON advcfl_wvel_max              =   6.8785916596602E-02
(PID.TID 0000.0001) %MON advcfl_W_hf_max              =   1.1933548306671E-01
(PID.TID 0000.0001) %MON am_eta_mean                  =   2.4386853830235E+10
(PID.TID 0000.0001) %MON am_uZo_mean                  =   3.1470881875811E+11
(PID.TID 0000.0001) %MON am_tot_mean                  =   3.3909567258835E+11
(PID.TID 0000.0001) %MON pe_b_mean                    =   3.9778000280607E+00
(PID.TID 0000.0001) %MON ke_max                       =   5.1880689369723E+03
(PID.TID 0000.0001) %MON ke_mean                      =   1.5799394483193E+02
(PID.TID 0000.0001) %MON ke_vol                       =   5.0995454902520E+19
(PID.TID 0000.0001) %MON vort_r_min                   =  -2.3175758958219E-04
(PID.TID 0000.0001) %MON vort_r_max                   =   2.3986823764976E-04
(PID.TID 0000.0001) %MON vort_a_mean                  =  -6.3731169889797E-20
(PID.TID 0000.0001) %MON vort_a_sd                    =   8.8843696712869E-05
(PID.TID 0000.0001) %MON vort_p_mean                  =  -6.3731169889797E-20
(PID.TID 0000.0001) %MON vort_p_sd                    =   8.8843696712869E-05
(PID.TID 0000.0001) %MON surfExpan_theta_mean         =  -3.5394461194123E-03
(PID.TID 0000.0001) %MON surfExpan_salt_mean          =  -1.7039974940844E-03
(PID.TID 0000.0001) %MON surfExpan_Heat_mean          =  -3.5697296519524E-01
(PID.TID 0000.0001) %MON En_Budget_T2PE_mean          =   1.8683210860109E+00
(PID.TID 0000.0001) // =======================================================
(PID.TID 0000.0001) // End MONITOR dynamic field statistics
(PID.TID 0000.0001) // =======================================================
(PID.TID 0000.0001) // =======================================================
(PID.TID 0000.0001) // Begin MONITOR Land statistics
(PID.TID 0000.0001) // =======================================================
(PID.TID 0000.0001) %MON land_time_sec                =   6.6749184600000E+11
(PID.TID 0000.0001) %MON land_SnwH_ave_G              =   3.8107580825381E-03
(PID.TID 0000.0001) %MON land_SnwH_ave_S              =   0.0000000000000E+00
(PID.TID 0000.0001) %MON land_SnwH_ave_T              =   0.0000000000000E+00
(PID.TID 0000.0001) %MON land_SnwH_ave_N              =   7.1369167846525E-03
(PID.TID 0000.0001) %MON land_SnwH_max_S              =   0.0000000000000E+00
(PID.TID 0000.0001) %MON land_SnwH_max_T              =   0.0000000000000E+00
(PID.TID 0000.0001) %MON land_SnwH_max_N              =   7.3268792027857E-02
(PID.TID 0000.0001) %MON land_Tsrf_ave_G              =   1.4765942585352E+01
(PID.TID 0000.0001) %MON land_Tsrf_ave_S              =   3.6062443226377E+01
(PID.TID 0000.0001) %MON land_Tsrf_ave_T              =   2.8179323901910E+01
(PID.TID 0000.0001) %MON land_Tsrf_ave_N              =   1.7595275647107E+00
(PID.TID 0000.0001) %MON land_Tsrf_min_S              =   3.1326282891893E+01
(PID.TID 0000.0001) %MON land_Tsrf_min_T              =   2.5985713362486E+01
(PID.TID 0000.0001) %MON land_Tsrf_min_N              =  -1.9968043463910E+01
(PID.TID 0000.0001) %MON land_Tsrf_max_S              =   4.0660743093916E+01
(PID.TID 0000.0001) %MON land_Tsrf_max_T              =   3.0870044242721E+01
(PID.TID 0000.0001) %MON land_Tsrf_max_N              =   2.8903320581025E+01
(PID.TID 0000.0001) %MON land_Tgr1_ave_G              =   1.4789597980857E+01
(PID.TID 0000.0001) %MON land_Tgr1_ave_S              =   3.6062443226377E+01
(PID.TID 0000.0001) %MON land_Tgr1_ave_T              =   2.8179323901910E+01
(PID.TID 0000.0001) %MON land_Tgr1_ave_N              =   1.8038301904806E+00
(PID.TID 0000.0001) %MON land_Tgr1_min_S              =   3.1326282891893E+01
(PID.TID 0000.0001) %MON land_Tgr1_min_T              =   2.5985713362486E+01
(PID.TID 0000.0001) %MON land_Tgr1_min_N              =  -1.9941596712064E+01
(PID.TID 0000.0001) %MON land_Tgr1_max_S              =   4.0660743093916E+01
(PID.TID 0000.0001) %MON land_Tgr1_max_T              =   3.0870044242721E+01
(PID.TID 0000.0001) %MON land_Tgr1_max_N              =   2.8903320581025E+01
(PID.TID 0000.0001) %MON land_Tgr2_ave_G              =   1.8545424848199E+01
(PID.TID 0000.0001) %MON land_Tgr2_ave_S              =   2.5506152059951E+01
(PID.TID 0000.0001) %MON land_Tgr2_ave_T              =   2.8640299744963E+01
(PID.TID 0000.0001) %MON land_Tgr2_ave_N              =   1.0250634040335E+01
(PID.TID 0000.0001) %MON land_Tgr2_min_S              =   2.1473314269966E+01
(PID.TID 0000.0001) %MON land_Tgr2_min_T              =   2.7869787310597E+01
(PID.TID 0000.0001) %MON land_Tgr2_min_N              =  -3.4976659679226E+00
(PID.TID 0000.0001) %MON land_Tgr2_max_S              =   2.8426777344609E+01
(PID.TID 0000.0001) %MON land_Tgr2_max_T              =   3.0668715317384E+01
(PID.TID 0000.0001) %MON land_Tgr2_max_N              =   3.1151423356002E+01
(PID.TID 0000.0001) %MON land_TotEnerg_G              =   1.0748705741474E+21
(PID.TID 0000.0001) %MON land_TotEnerg_S              =   1.3492995887351E+20
(PID.TID 0000.0001) %MON land_TotEnerg_T              =   9.7291988610709E+20
(PID.TID 0000.0001) %MON land_TotEnerg_N              =  -3.2979270833172E+19
(PID.TID 0000.0001) %MON land_grdW_ave_G              =   7.0723543840151E-01
(PID.TID 0000.0001) %MON land_grdW_ave_S              =   1.2696247861075E-01
(PID.TID 0000.0001) %MON land_grdW_ave_T              =   7.6797590555115E-01
(PID.TID 0000.0001) %MON land_grdW_ave_N              =   7.5982750047316E-01
(PID.TID 0000.0001) %MON land_grdW_min_S              =   1.5618602208147E-02
(PID.TID 0000.0001) %MON land_grdW_min_T              =   1.3137727773953E-01
(PID.TID 0000.0001) %MON land_grdW_min_N              =   4.5026779142030E-02
(PID.TID 0000.0001) // =======================================================
(PID.TID 0000.0001) // End MONITOR Land statistics
(PID.TID 0000.0001) // =======================================================
(PID.TID 0000.0001) // =======================================================
(PID.TID 0000.0001) // Begin MONITOR Therm.SeaIce statistics
(PID.TID 0000.0001) // =======================================================
(PID.TID 0000.0001) %MON thSI_time_sec                =   6.6749184600000E+11
(PID.TID 0000.0001) %MON thSI_Ice_Area_G              =   4.9775248181386E+13
(PID.TID 0000.0001) %MON thSI_Ice_Area_S              =   4.9775248181386E+13
(PID.TID 0000.0001) %MON thSI_Ice_Area_N              =   0.0000000000000E+00
(PID.TID 0000.0001) %MON thSI_IceH_ave_G              =   9.9180922939823E+00
(PID.TID 0000.0001) %MON thSI_IceH_ave_S              =   9.9180922939823E+00
(PID.TID 0000.0001) %MON thSI_IceH_ave_N              =   0.0000000000000E+00
(PID.TID 0000.0001) %MON thSI_IceH_max_S              =   2.2476284513240E+01
(PID.TID 0000.0001) %MON thSI_IceH_max_N              =   0.0000000000000E+00
(PID.TID 0000.0001) %MON thSI_SnwH_ave_G              =   4.9023046020308E-02
(PID.TID 0000.0001) %MON thSI_SnwH_ave_S              =   4.9023046020308E-02
(PID.TID 0000.0001) %MON thSI_SnwH_ave_N              =   0.0000000000000E+00
(PID.TID 0000.0001) %MON thSI_SnwH_max_S              =   3.2217704945751E-01
(PID.TID 0000.0001) %MON thSI_SnwH_max_N              =   0.0000000000000E+00
(PID.TID 0000.0001) %MON thSI_Tsrf_ave_G              =  -8.4731505664282E-01
(PID.TID 0000.0001) %MON thSI_Tsrf_ave_S              =  -8.4731505664282E-01
(PID.TID 0000.0001) %MON thSI_Tsrf_ave_N              =   0.0000000000000E+00
(PID.TID 0000.0001) %MON thSI_Tsrf_min_S              =  -8.7907558430602E+00
(PID.TID 0000.0001) %MON thSI_Tsrf_min_N              =   0.0000000000000E+00
(PID.TID 0000.0001) %MON thSI_Tsrf_max_S              =   0.0000000000000E+00
(PID.TID 0000.0001) %MON thSI_Tsrf_max_N              =   0.0000000000000E+00
(PID.TID 0000.0001) %MON thSI_Tic1_ave_G              =  -1.4103031637831E+01
(PID.TID 0000.0001) %MON thSI_Tic1_ave_S              =  -1.4103031637831E+01
(PID.TID 0000.0001) %MON thSI_Tic1_ave_N              =   0.0000000000000E+00
(PID.TID 0000.0001) %MON thSI_Tic1_min_S              =  -1.9926093854794E+01
(PID.TID 0000.0001) %MON thSI_Tic1_min_N              =   0.0000000000000E+00
(PID.TID 0000.0001) %MON thSI_Tic1_max_S              =  -1.4376945791380E-01
(PID.TID 0000.0001) %MON thSI_Tic1_max_N              =   0.0000000000000E+00
(PID.TID 0000.0001) %MON thSI_Tic2_ave_G              =  -6.1612183485100E+00
(PID.TID 0000.0001) %MON thSI_Tic2_ave_S              =  -6.1612183485100E+00
(PID.TID 0000.0001) %MON thSI_Tic2_ave_N              =   0.0000000000000E+00
(PID.TID 0000.0001) %MON thSI_Tic2_min_S              =  -7.6251375341979E+00
(PID.TID 0000.0001) %MON thSI_Tic2_min_N              =   0.0000000000000E+00
(PID.TID 0000.0001) %MON thSI_Tic2_max_S              =  -1.3547599070350E-02
(PID.TID 0000.0001) %MON thSI_Tic2_max_N              =   0.0000000000000E+00
(PID.TID 0000.0001) %MON thSI_TotEnerg_G              =  -1.5754614895014E+23
(PID.TID 0000.0001) // =======================================================
(PID.TID 0000.0001) // End MONITOR Therm.SeaIce statistics
(PID.TID 0000.0001) // =======================================================
 cg2d: Sum(rhs),rhsMax =  -2.18646600842476E-05  5.38097443482866E+03
(PID.TID 0000.0001)      cg2d_init_res =   9.38834362448131E+02
(PID.TID 0000.0001)      cg2d_iters(min,last) =      -1      23
(PID.TID 0000.0001)      cg2d_last_res =   4.04616588503639E-11
 cg3d: Sum(rhs),rhsMax =   6.61363325216158E-14  3.68769850876357E+00
(PID.TID 0000.0001)      cg3d_init_res =   7.65880466400387E-01
(PID.TID 0000.0001)      cg3d_iters (last) =                 11
(PID.TID 0000.0001)      cg3d_last_res =   9.72254596857774E-05
(PID.TID 0000.0001) // =======================================================
(PID.TID 0000.0001) // Begin MONITOR dynamic field statistics
(PID.TID 0000.0001) // =======================================================
(PID.TID 0000.0001) %MON time_tsnumber                =             556243206
(PID.TID 0000.0001) %MON time_secondsf                =   6.6749184720000E+11
(PID.TID 0000.0001) %MON dynstat_eta_max              =   2.2387964621411E+03
(PID.TID 0000.0001) %MON dynstat_eta_min              =  -4.3344966096886E+03
(PID.TID 0000.0001) %MON dynstat_eta_mean             =   6.2210644859709E-09
(PID.TID 0000.0001) %MON dynstat_eta_sd               =   9.7862278069390E+02
(PID.TID 0000.0001) %MON dynstat_eta_del2             =   4.3411103041486E+00
(PID.TID 0000.0001) %MON dynstat_uvel_max             =   7.1817209962862E+01
(PID.TID 0000.0001) %MON dynstat_uvel_min             =  -6.0649763095293E+01
(PID.TID 0000.0001) %MON dynstat_uvel_mean            =   1.8335408141212E+00
(PID.TID 0000.0001) %MON dynstat_uvel_sd              =   1.2413238662423E+01
(PID.TID 0000.0001) %MON dynstat_uvel_del2            =   4.7651940658209E-02
(PID.TID 0000.0001) %MON dynstat_vvel_max             =   1.0225265694706E+02
(PID.TID 0000.0001) %MON dynstat_vvel_min             =  -5.4443347074169E+01
(PID.TID 0000.0001) %MON dynstat_vvel_mean            =   1.7889896432459E+00
(PID.TID 0000.0001) %MON dynstat_vvel_sd              =   1.2470388083219E+01
(PID.TID 0000.0001) %MON dynstat_vvel_del2            =   4.8172247632236E-02
(PID.TID 0000.0001) %MON dynstat_wvel_max             =   1.1262231939200E+00
(PID.TID 0000.0001) %MON dynstat_wvel_min             =  -1.7068488353838E+00
(PID.TID 0000.0001) %MON dynstat_wvel_mean            =  -8.4798230206798E-19
(PID.TID 0000.0001) %MON dynstat_wvel_sd              =   9.2671440114623E-02
(PID.TID 0000.0001) %MON dynstat_wvel_del2            =   1.4467456217357E-03
(PID.TID 0000.0001) %MON dynstat_theta_max            =   5.0201942865268E+02
(PID.TID 0000.0001) %MON dynstat_theta_min            =   2.6620430716376E+02
(PID.TID 0000.0001) %MON dynstat_theta_mean           =   3.3729589399101E+02
(PID.TID 0000.0001) %MON dynstat_theta_sd             =   4.8953498003328E+01
(PID.TID 0000.0001) %MON dynstat_theta_del2           =   2.6860852061133E-02
(PID.TID 0000.0001) %MON dynstat_salt_max             =   1.7869250626229E+01
(PID.TID 0000.0001) %MON dynstat_salt_min             =  -1.8507235766835E+00
(PID.TID 0000.0001) %MON dynstat_salt_mean            =   3.2334933767762E+00
(PID.TID 0000.0001) %MON dynstat_salt_sd              =   3.9646215187887E+00
(PID.TID 0000.0001) %MON dynstat_salt_del2            =   1.2029781769168E-02
(PID.TID 0000.0001) %MON trAdv_CFL_u_max              =   5.2887868019348E-01
(PID.TID 0000.0001) %MON trAdv_CFL_v_max              =   4.1157862011396E-01
(PID.TID 0000.0001) %MON trAdv_CFL_w_max              =   9.3047060873789E-02
(PID.TID 0000.0001) %MON advcfl_uvel_max              =   5.5442804349463E-01
(PID.TID 0000.0001) %MON advcfl_vvel_max              =   4.2172520284515E-01
(PID.TID 0000.0001) %MON advcfl_wvel_max              =   8.1928744098421E-02
(PID.TID 0000.0001) %MON advcfl_W_hf_max              =   1.1341113591405E-01
(PID.TID 0000.0001) %MON am_eta_mean                  =   2.4395587981245E+10
(PID.TID 0000.0001) %MON am_uZo_mean                  =   3.1471013241129E+11
(PID.TID 0000.0001) %MON am_tot_mean                  =   3.3910572039253E+11
(PID.TID 0000.0001) %MON pe_b_mean                    =   3.9780008601507E+00
(PID.TID 0000.0001) %MON ke_max                       =   5.2086269561133E+03
(PID.TID 0000.0001) %MON ke_mean                      =   1.5801065394364E+02
(PID.TID 0000.0001) %MON ke_vol                       =   5.0995454902520E+19
(PID.TID 0000.0001) %MON vort_r_min                   =  -2.1904479599100E-04
(PID.TID 0000.0001) %MON vort_r_max                   =   2.7719259790422E-04
(PID.TID 0000.0001) %MON vort_a_mean                  =   7.3535965257458E-21
(PID.TID 0000.0001) %MON vort_a_sd                    =   8.8844911673919E-05
(PID.TID 0000.0001) %MON vort_p_mean                  =   7.3535965257458E-21
(PID.TID 0000.0001) %MON vort_p_sd                    =   8.8844911673919E-05
(PID.TID 0000.0001) %MON surfExpan_theta_mean         =  -3.5019701159281E-03
(PID.TID 0000.0001) %MON surfExpan_salt_mean          =  -1.7177554324001E-03
(PID.TID 0000.0001) %MON surfExpan_Heat_mean          =  -3.5319330034484E-01
(PID.TID 0000.0001) %MON En_Budget_T2PE_mean          =   1.8684663064339E+00
(PID.TID 0000.0001) // =======================================================
(PID.TID 0000.0001) // End MONITOR dynamic field statistics
(PID.TID 0000.0001) // =======================================================
(PID.TID 0000.0001) // =======================================================
(PID.TID 0000.0001) // Begin MONITOR Land statistics
(PID.TID 0000.0001) // =======================================================
(PID.TID 0000.0001) %MON land_time_sec                =   6.6749184720000E+11
(PID.TID 0000.0001) %MON land_SnwH_ave_G              =   3.8132968182030E-03
(PID.TID 0000.0001) %MON land_SnwH_ave_S              =   0.0000000000000E+00
(PID.TID 0000.0001) %MON land_SnwH_ave_T              =   0.0000000000000E+00
(PID.TID 0000.0001) %MON land_SnwH_ave_N              =   7.1416714147775E-03
(PID.TID 0000.0001) %MON land_SnwH_max_S              =   0.0000000000000E+00
(PID.TID 0000.0001) %MON land_SnwH_max_T              =   0.0000000000000E+00
(PID.TID 0000.0001) %MON land_SnwH_max_N              =   7.3268813884510E-02
(PID.TID 0000.0001) %MON land_Tsrf_ave_G              =   1.4770735689350E+01
(PID.TID 0000.0001) %MON land_Tsrf_ave_S              =   3.6094405416418E+01
(PID.TID 0000.0001) %MON land_Tsrf_ave_T              =   2.8185819614760E+01
(PID.TID 0000.0001) %MON land_Tsrf_ave_N              =   1.7586389148546E+00
(PID.TID 0000.0001) %MON land_Tsrf_min_S              =   3.1343685469769E+01
(PID.TID 0000.0001) %MON land_Tsrf_min_T              =   2.5989528388256E+01
(PID.TID 0000.0001) %MON land_Tsrf_min_N              =  -1.9964858996872E+01
(PID.TID 0000.0001) %MON land_Tsrf_max_S              =   4.0729898093938E+01
(PID.TID 0000.0001) %MON land_Tsrf_max_T              =   3.0972458750485E+01
(PID.TID 0000.0001) %MON land_Tsrf_max_N              =   2.8851389278430E+01
(PID.TID 0000.0001) %MON land_Tgr1_ave_G              =   1.4794631239525E+01
(PID.TID 0000.0001) %MON land_Tgr1_ave_S              =   3.6094405416418E+01
(PID.TID 0000.0001) %MON land_Tgr1_ave_T              =   2.8185819614760E+01
(PID.TID 0000.0001) %MON land_Tgr1_ave_N              =   1.8033913104213E+00
(PID.TID 0000.0001) %MON land_Tgr1_min_S              =   3.1343685469769E+01
(PID.TID 0000.0001) %MON land_Tgr1_min_T              =   2.5989528388256E+01
(PID.TID 0000.0001) %MON land_Tgr1_min_N              =  -1.9938461330127E+01
(PID.TID 0000.0001) %MON land_Tgr1_max_S              =   4.0729898093938E+01
(PID.TID 0000.0001) %MON land_Tgr1_max_T              =   3.0972458750485E+01
(PID.TID 0000.0001) %MON land_Tgr1_max_N              =   2.8851389278430E+01
(PID.TID 0000.0001) %MON land_Tgr2_ave_G              =   1.8545341903256E+01
(PID.TID 0000.0001) %MON land_Tgr2_ave_S              =   2.5506703577539E+01
(PID.TID 0000.0001) %MON land_Tgr2_ave_T              =   2.8640282295179E+01
(PID.TID 0000.0001) %MON land_Tgr2_ave_N              =   1.0250400190349E+01
(PID.TID 0000.0001) %MON land_Tgr2_min_S              =   2.1473991037663E+01
(PID.TID 0000.0001) %MON land_Tgr2_min_T              =   2.7869795770702E+01
(PID.TID 0000.0001) %MON land_Tgr2_min_N              =  -3.4980662988885E+00
(PID.TID 0000.0001) %MON land_Tgr2_max_S              =   2.8427202342435E+01
(PID.TID 0000.0001) %MON land_Tgr2_max_T              =   3.0668634202017E+01
(PID.TID 0000.0001) %MON land_Tgr2_max_N              =   3.1151314385513E+01
(PID.TID 0000.0001) %MON land_TotEnerg_G              =   1.0748610385816E+21
(PID.TID 0000.0001) %MON land_TotEnerg_S              =   1.3493678586776E+20
(PID.TID 0000.0001) %MON land_TotEnerg_T              =   9.7291882257227E+20
(PID.TID 0000.0001) %MON land_TotEnerg_N              =  -3.2994569858404E+19
(PID.TID 0000.0001) %MON land_grdW_ave_G              =   7.0723037920171E-01
(PID.TID 0000.0001) %MON land_grdW_ave_S              =   1.2696260418308E-01
(PID.TID 0000.0001) %MON land_grdW_ave_T              =   7.6796513057855E-01
(PID.TID 0000.0001) %MON land_grdW_ave_N              =   7.5982563430420E-01
(PID.TID 0000.0001) %MON land_grdW_min_S              =   1.5545046877987E-02
(PID.TID 0000.0001) %MON land_grdW_min_T              =   1.3142490192021E-01
(PID.TID 0000.0001) %MON land_grdW_min_N              =   4.4963297379043E-02
(PID.TID 0000.0001) // =======================================================
(PID.TID 0000.0001) // End MONITOR Land statistics
(PID.TID 0000.0001) // =======================================================
(PID.TID 0000.0001) // =======================================================
(PID.TID 0000.0001) // Begin MONITOR Therm.SeaIce statistics
(PID.TID 0000.0001) // =======================================================
(PID.TID 0000.0001) %MON thSI_time_sec                =   6.6749184720000E+11
(PID.TID 0000.0001) %MON thSI_Ice_Area_G              =   4.9773650595645E+13
(PID.TID 0000.0001) %MON thSI_Ice_Area_S              =   4.9773650595645E+13
(PID.TID 0000.0001) %MON thSI_Ice_Area_N              =   0.0000000000000E+00
(PID.TID 0000.0001) %MON thSI_IceH_ave_G              =   9.9183275623632E+00
(PID.TID 0000.0001) %MON thSI_IceH_ave_S              =   9.9183275623632E+00
(PID.TID 0000.0001) %MON thSI_IceH_ave_N              =   0.0000000000000E+00
(PID.TID 0000.0001) %MON thSI_IceH_max_S              =   2.2476289987982E+01
(PID.TID 0000.0001) %MON thSI_IceH_max_N              =   0.0000000000000E+00
(PID.TID 0000.0001) %MON thSI_SnwH_ave_G              =   4.8944288824160E-02
(PID.TID 0000.0001) %MON thSI_SnwH_ave_S              =   4.8944288824160E-02
(PID.TID 0000.0001) %MON thSI_SnwH_ave_N              =   0.0000000000000E+00
(PID.TID 0000.0001) %MON thSI_SnwH_max_S              =   3.2195852732206E-01
(PID.TID 0000.0001) %MON thSI_SnwH_max_N              =   0.0000000000000E+00
(PID.TID 0000.0001) %MON thSI_Tsrf_ave_G              =  -8.4899580226431E-01
(PID.TID 0000.0001) %MON thSI_Tsrf_ave_S              =  -8.4899580226431E-01
(PID.TID 0000.0001) %MON thSI_Tsrf_ave_N              =   0.0000000000000E+00
(PID.TID 0000.0001) %MON thSI_Tsrf_min_S              =  -8.7909229221206E+00
(PID.TID 0000.0001) %MON thSI_Tsrf_min_N              =   0.0000000000000E+00
(PID.TID 0000.0001) %MON thSI_Tsrf_max_S              =   0.0000000000000E+00
(PID.TID 0000.0001) %MON thSI_Tsrf_max_N              =   0.0000000000000E+00
(PID.TID 0000.0001) %MON thSI_Tic1_ave_G              =  -1.4102325911723E+01
(PID.TID 0000.0001) %MON thSI_Tic1_ave_S              =  -1.4102325911723E+01
(PID.TID 0000.0001) %MON thSI_Tic1_ave_N              =   0.0000000000000E+00
(PID.TID 0000.0001) %MON thSI_Tic1_min_S              =  -1.9925646966156E+01
(PID.TID 0000.0001) %MON thSI_Tic1_min_N              =   0.0000000000000E+00
(PID.TID 0000.0001) %MON thSI_Tic1_max_S              =  -1.4417657211904E-01
(PID.TID 0000.0001) %MON thSI_Tic1_max_N              =   0.0000000000000E+00
(PID.TID 0000.0001) %MON thSI_Tic2_ave_G              =  -6.1611606195372E+00
(PID.TID 0000.0001) %MON thSI_Tic2_ave_S              =  -6.1611606195372E+00
(PID.TID 0000.0001) %MON thSI_Tic2_ave_N              =   0.0000000000000E+00
(PID.TID 0000.0001) %MON thSI_Tic2_min_S              =  -7.6251396560030E+00
(PID.TID 0000.0001) %MON thSI_Tic2_min_N              =   0.0000000000000E+00
(PID.TID 0000.0001) %MON thSI_Tic2_max_S              =  -8.8921126511255E-03
(PID.TID 0000.0001) %MON thSI_Tic2_max_N              =   0.0000000000000E+00
(PID.TID 0000.0001) %MON thSI_TotEnerg_G              =  -1.5754389265490E+23
(PID.TID 0000.0001) // =======================================================
(PID.TID 0000.0001) // End MONITOR Therm.SeaIce statistics
(PID.TID 0000.0001) // =======================================================
(PID.TID 0000.0001)   Exporting atmospheric surf fluxes at iter= 556243206
(PID.TID 0000.0001)   Importing  oceanic surface fields at iter= 556243206
 cg2d: Sum(rhs),rhsMax =  -2.18651257455349E-05  5.37762949681036E+03
(PID.TID 0000.0001)      cg2d_init_res =   9.30193506029954E+02
(PID.TID 0000.0001)      cg2d_iters(min,last) =      -1      23
(PID.TID 0000.0001)      cg2d_last_res =   3.99881566149976E-11
 cg3d: Sum(rhs),rhsMax =  -2.12143670685894E-14  3.35692244201600E+00
(PID.TID 0000.0001)      cg3d_init_res =   8.93403953520999E-01
(PID.TID 0000.0001)      cg3d_iters (last) =                 11
(PID.TID 0000.0001)      cg3d_last_res =   9.69922651526805E-05
(PID.TID 0000.0001) // =======================================================
(PID.TID 0000.0001) // Begin MONITOR dynamic field statistics
(PID.TID 0000.0001) // =======================================================
(PID.TID 0000.0001) %MON time_tsnumber                =             556243207
(PID.TID 0000.0001) %MON time_secondsf                =   6.6749184840000E+11
(PID.TID 0000.0001) %MON dynstat_eta_max              =   2.2384305338849E+03
(PID.TID 0000.0001) %MON dynstat_eta_min              =  -4.3422953173253E+03
(PID.TID 0000.0001) %MON dynstat_eta_mean             =   6.2210130806053E-09
(PID.TID 0000.0001) %MON dynstat_eta_sd               =   9.7865145025345E+02
(PID.TID 0000.0001) %MON dynstat_eta_del2             =   4.3430956449471E+00
(PID.TID 0000.0001) %MON dynstat_uvel_max             =   7.1162601301253E+01
(PID.TID 0000.0001) %MON dynstat_uvel_min             =  -6.0682334885167E+01
(PID.TID 0000.0001) %MON dynstat_uvel_mean            =   1.8342376594529E+00
(PID.TID 0000.0001) %MON dynstat_uvel_sd              =   1.2412161635771E+01
(PID.TID 0000.0001) %MON dynstat_uvel_del2            =   4.7652898442326E-02
(PID.TID 0000.0001) %MON dynstat_vvel_max             =   1.0252310946514E+02
(PID.TID 0000.0001) %MON dynstat_vvel_min             =  -5.4308928307190E+01
(PID.TID 0000.0001) %MON dynstat_vvel_mean            =   1.7894725276026E+00
(PID.TID 0000.0001) %MON dynstat_vvel_sd              =   1.2472617801085E+01
(PID.TID 0000.0001) %MON dynstat_vvel_del2            =   4.8134920191245E-02
(PID.TID 0000.0001) %MON dynstat_wvel_max             =   9.9443925102290E-01
(PID.TID 0000.0001) %MON dynstat_wvel_min             =  -1.9190348569757E+00
(PID.TID 0000.0001) %MON dynstat_wvel_mean            =   2.7983415968243E-18
(PID.TID 0000.0001) %MON dynstat_wvel_sd              =   9.2775844579046E-02
(PID.TID 0000.0001) %MON dynstat_wvel_del2            =   1.4608664236471E-03
(PID.TID 0000.0001) %MON dynstat_theta_max            =   5.0203936296264E+02
(PID.TID 0000.0001) %MON dynstat_theta_min            =   2.6618805654924E+02
(PID.TID 0000.0001) %MON dynstat_theta_mean           =   3.3729567516232E+02
(PID.TID 0000.0001) %MON dynstat_theta_sd             =   4.8953736376857E+01
(PID.TID 0000.0001) %MON dynstat_theta_del2           =   2.6874925904488E-02
(PID.TID 0000.0001) %MON dynstat_salt_max             =   1.7873363144668E+01
(PID.TID 0000.0001) %MON dynstat_salt_min             =  -1.8449054857043E+00
(PID.TID 0000.0001) %MON dynstat_salt_mean            =   3.2333477799523E+00
(PID.TID 0000.0001) %MON dynstat_salt_sd              =   3.9644015434391E+00
(PID.TID 0000.0001) %MON dynstat_salt_del2            =   1.2023440906351E-02
(PID.TID 0000.0001) %MON trAdv_CFL_u_max              =   5.3747221947821E-01
(PID.TID 0000.0001) %MON trAdv_CFL_v_max              =   4.0990670542995E-01
(PID.TID 0000.0001) %MON trAdv_CFL_w_max              =   9.3819468025729E-02
(PID.TID 0000.0001) %MON advcfl_uvel_max              =   5.4937447207772E-01
(PID.TID 0000.0001) %MON advcfl_vvel_max              =   4.2444418933335E-01
(PID.TID 0000.0001) %MON advcfl_wvel_max              =   9.2113673134831E-02
(PID.TID 0000.0001) %MON advcfl_W_hf_max              =   1.1514209141854E-01
(PID.TID 0000.0001) %MON am_eta_mean                  =   2.4404522558490E+10
(PID.TID 0000.0001) %MON am_uZo_mean                  =   3.1471122359581E+11
(PID.TID 0000.0001) %MON am_tot_mean                  =   3.3911574615430E+11
(PID.TID 0000.0001) %MON pe_b_mean                    =   3.9782339411813E+00
(PID.TID 0000.0001) %MON ke_max                       =   5.2268214998534E+03
(PID.TID 0000.0001) %MON ke_mean                      =   1.5802725304609E+02
(PID.TID 0000.0001) %MON ke_vol                       =   5.0995454902520E+19
(PID.TID 0000.0001) %MON vort_r_min                   =  -2.0682883846758E-04
(PID.TID 0000.0001) %MON vort_r_max                   =   3.0310378687079E-04
(PID.TID 0000.0001) %MON vort_a_mean                  =  -2.9414386102983E-20
(PID.TID 0000.0001) %MON vort_a_sd                    =   8.8846188635354E-05
(PID.TID 0000.0001) %MON vort_p_mean                  =  -2.9414386102983E-20
(PID.TID 0000.0001) %MON vort_p_sd                    =   8.8846188635354E-05
(PID.TID 0000.0001) %MON surfExpan_theta_mean         =  -3.4551934962159E-03
(PID.TID 0000.0001) %MON surfExpan_salt_mean          =  -1.7033975445864E-03
(PID.TID 0000.0001) %MON surfExpan_Heat_mean          =  -3.4847561625609E-01
(PID.TID 0000.0001) %MON En_Budget_T2PE_mean          =   1.8677363469317E+00
(PID.TID 0000.0001) // =======================================================
(PID.TID 0000.0001) // End MONITOR dynamic field statistics
(PID.TID 0000.0001) // =======================================================
(PID.TID 0000.0001) // =======================================================
(PID.TID 0000.0001) // Begin MONITOR Land statistics
(PID.TID 0000.0001) // =======================================================
(PID.TID 0000.0001) %MON land_time_sec                =   6.6749184840000E+11
(PID.TID 0000.0001) %MON land_SnwH_ave_G              =   3.8157894781856E-03
(PID.TID 0000.0001) %MON land_SnwH_ave_S              =   0.0000000000000E+00
(PID.TID 0000.0001) %MON land_SnwH_ave_T              =   0.0000000000000E+00
(PID.TID 0000.0001) %MON land_SnwH_ave_N              =   7.1463397528045E-03
(PID.TID 0000.0001) %MON land_SnwH_max_S              =   0.0000000000000E+00
(PID.TID 0000.0001) %MON land_SnwH_max_T              =   0.0000000000000E+00
(PID.TID 0000.0001) %MON land_SnwH_max_N              =   7.3268833905035E-02
(PID.TID 0000.0001) %MON land_Tsrf_ave_G              =   1.4775613089036E+01
(PID.TID 0000.0001) %MON land_Tsrf_ave_S              =   3.6126603598498E+01
(PID.TID 0000.0001) %MON land_Tsrf_ave_T              =   2.8192720002644E+01
(PID.TID 0000.0001) %MON land_Tsrf_ave_N              =   1.7575827136441E+00
(PID.TID 0000.0001) %MON land_Tsrf_min_S              =   3.1359426302290E+01
(PID.TID 0000.0001) %MON land_Tsrf_min_T              =   2.5994235146312E+01
(PID.TID 0000.0001) %MON land_Tsrf_min_N              =  -1.9961681247092E+01
(PID.TID 0000.0001) %MON land_Tsrf_max_S              =   4.0797320442431E+01
(PID.TID 0000.0001) %MON land_Tsrf_max_T              =   3.1076954641767E+01
(PID.TID 0000.0001) %MON land_Tsrf_max_N              =   2.8798788532233E+01
(PID.TID 0000.0001) %MON land_Tgr1_ave_G              =   1.4799724149883E+01
(PID.TID 0000.0001) %MON land_Tgr1_ave_S              =   3.6126603598498E+01
(PID.TID 0000.0001) %MON land_Tgr1_ave_T              =   2.8192720002644E+01
(PID.TID 0000.0001) %MON land_Tgr1_ave_N              =   1.8027387248963E+00
(PID.TID 0000.0001) %MON land_Tgr1_min_S              =   3.1359426302290E+01
(PID.TID 0000.0001) %MON land_Tgr1_min_T              =   2.5994235146312E+01
(PID.TID 0000.0001) %MON land_Tgr1_min_N              =  -1.9935328853746E+01
(PID.TID 0000.0001) %MON land_Tgr1_max_S              =   4.0797320442431E+01
(PID.TID 0000.0001) %MON land_Tgr1_max_T              =   3.1076954641767E+01
(PID.TID 0000.0001) %MON land_Tgr1_max_N              =   2.8798788532233E+01
(PID.TID 0000.0001) %MON land_Tgr2_ave_G              =   1.8545259051129E+01
(PID.TID 0000.0001) %MON land_Tgr2_ave_S              =   2.5507256836349E+01
(PID.TID 0000.0001) %MON land_Tgr2_ave_T              =   2.8640265078265E+01
(PID.TID 0000.0001) %MON land_Tgr2_ave_N              =   1.0250166062432E+01
(PID.TID 0000.0001) %MON land_Tgr2_min_S              =   2.1474669930507E+01
(PID.TID 0000.0001) %MON land_Tgr2_min_T              =   2.7869804315199E+01
(PID.TID 0000.0001) %MON land_Tgr2_min_N              =  -3.4984670355561E+00
(PID.TID 0000.0001) %MON land_Tgr2_max_S              =   2.8427629412579E+01
(PID.TID 0000.0001) %MON land_Tgr2_max_T              =   3.0668552354248E+01
(PID.TID 0000.0001) %MON land_Tgr2_max_N              =   3.1151202950001E+01
(PID.TID 0000.0001) %MON land_TotEnerg_G              =   1.0748513502758E+21
(PID.TID 0000.0001) %MON land_TotEnerg_S              =   1.3494366364862E+20
(PID.TID 0000.0001) %MON land_TotEnerg_T              =   9.7291780414901E+20
(PID.TID 0000.0001) %MON land_TotEnerg_N              =  -3.3010117521860E+19
(PID.TID 0000.0001) %MON land_grdW_ave_G              =   7.0722503535613E-01
(PID.TID 0000.0001) %MON land_grdW_ave_S              =   1.2696295431398E-01
(PID.TID 0000.0001) %MON land_grdW_ave_T              =   7.6795383921862E-01
(PID.TID 0000.0001) %MON land_grdW_ave_N              =   7.5982356368885E-01
(PID.TID 0000.0001) %MON land_grdW_min_S              =   1.5471892362756E-02
(PID.TID 0000.0001) %MON land_grdW_min_T              =   1.3147630192691E-01
(PID.TID 0000.0001) %MON land_grdW_min_N              =   4.4900943049752E-02
(PID.TID 0000.0001) // =======================================================
(PID.TID 0000.0001) // End MONITOR Land statistics
(PID.TID 0000.0001) // =======================================================
(PID.TID 0000.0001) // =======================================================
(PID.TID 0000.0001) // Begin MONITOR Therm.SeaIce statistics
(PID.TID 0000.0001) // =======================================================
(PID.TID 0000.0001) %MON thSI_time_sec                =   6.6749184840000E+11
(PID.TID 0000.0001) %MON thSI_Ice_Area_G              =   4.9772050284185E+13
(PID.TID 0000.0001) %MON thSI_Ice_Area_S              =   4.9772050284185E+13
(PID.TID 0000.0001) %MON thSI_Ice_Area_N              =   0.0000000000000E+00
(PID.TID 0000.0001) %MON thSI_IceH_ave_G              =   9.9185637196741E+00
(PID.TID 0000.0001) %MON thSI_IceH_ave_S              =   9.9185637196741E+00
(PID.TID 0000.0001) %MON thSI_IceH_ave_N              =   0.0000000000000E+00
(PID.TID 0000.0001) %MON thSI_IceH_max_S              =   2.2476295459804E+01
(PID.TID 0000.0001) %MON thSI_IceH_max_N              =   0.0000000000000E+00
(PID.TID 0000.0001) %MON thSI_SnwH_ave_G              =   4.8866129177664E-02
(PID.TID 0000.0001) %MON thSI_SnwH_ave_S              =   4.8866129177664E-02
(PID.TID 0000.0001) %MON thSI_SnwH_ave_N              =   0.0000000000000E+00
(PID.TID 0000.0001) %MON thSI_SnwH_max_S              =   3.2174295443671E-01
(PID.TID 0000.0001) %MON thSI_SnwH_max_N              =   0.0000000000000E+00
(PID.TID 0000.0001) %MON thSI_Tsrf_ave_G              =  -8.5062659993880E-01
(PID.TID 0000.0001) %MON thSI_Tsrf_ave_S              =  -8.5062659993880E-01
(PID.TID 0000.0001) %MON thSI_Tsrf_ave_N              =   0.0000000000000E+00
(PID.TID 0000.0001) %MON thSI_Tsrf_min_S              =  -8.7933266288842E+00
(PID.TID 0000.0001) %MON thSI_Tsrf_min_N              =   0.0000000000000E+00
(PID.TID 0000.0001) %MON thSI_Tsrf_max_S              =   0.0000000000000E+00
(PID.TID 0000.0001) %MON thSI_Tsrf_max_N              =   0.0000000000000E+00
(PID.TID 0000.0001) %MON thSI_Tic1_ave_G              =  -1.4101611554797E+01
(PID.TID 0000.0001) %MON thSI_Tic1_ave_S              =  -1.4101611554797E+01
(PID.TID 0000.0001) %MON thSI_Tic1_ave_N              =   0.0000000000000E+00
(PID.TID 0000.0001) %MON thSI_Tic1_min_S              =  -1.9925200018709E+01
(PID.TID 0000.0001) %MON thSI_Tic1_min_N              =   0.0000000000000E+00
(PID.TID 0000.0001) %MON thSI_Tic1_max_S              =  -1.4459556393363E-01
(PID.TID 0000.0001) %MON thSI_Tic1_max_N              =   0.0000000000000E+00
(PID.TID 0000.0001) %MON thSI_Tic2_ave_G              =  -6.1611092920074E+00
(PID.TID 0000.0001) %MON thSI_Tic2_ave_S              =  -6.1611092920074E+00
(PID.TID 0000.0001) %MON thSI_Tic2_ave_N              =   0.0000000000000E+00
(PID.TID 0000.0001) %MON thSI_Tic2_min_S              =  -7.6251417727096E+00
(PID.TID 0000.0001) %MON thSI_Tic2_min_N              =   0.0000000000000E+00
(PID.TID 0000.0001) %MON thSI_Tic2_max_S              =  -1.6327679013524E-02
(PID.TID 0000.0001) %MON thSI_Tic2_max_N              =   0.0000000000000E+00
(PID.TID 0000.0001) %MON thSI_TotEnerg_G              =  -1.5754164077973E+23
(PID.TID 0000.0001) // =======================================================
(PID.TID 0000.0001) // End MONITOR Therm.SeaIce statistics
(PID.TID 0000.0001) // =======================================================
 Compute Stats, Diag. #    187  SI_Fract  vol(   0 ): 5.100E+14  Parms: SM P    M1      
 Compute Stats, Diag. #    188  SI_Thick  vol(   0 ): 4.977E+13  Parms: SM PC   M1      
    use Counter Mate  #    187  SI_Fract  vol(   0 ): 5.100E+14 integral 4.977E+13
 Compute Stats, Diag. #    273  aim_pCO2  vol(   0 ): 5.100E+14  Parms: SM P    L1      
 Compute Stats, Diag. #    279  CPL_fCO2  vol(   0 ): 5.100E+14  Parms: SM      M1      
 Compute Stats, Diag. #    275  CPL_MxlD  vol(   0 ): 5.100E+14  Parms: SM      M1      
 Compute Stats, Diag. #    276  CPL_SST   vol(   0 ): 5.100E+14  Parms: SM      M1      
 Compute Stats, Diag. #    277  CPL_SSS   vol(   0 ): 5.100E+14  Parms: SM      M1      
 Compute Stats, Diag. #    278  CPL_Vel2  vol(   0 ): 5.100E+14  Parms: SM      M1      
 cg2d: Sum(rhs),rhsMax =  -2.18644854612648E-05  5.37422293561076E+03
(PID.TID 0000.0001)      cg2d_init_res =   9.20494130929915E+02
(PID.TID 0000.0001)      cg2d_iters(min,last) =      -1      23
(PID.TID 0000.0001)      cg2d_last_res =   3.94757533011596E-11
 cg3d: Sum(rhs),rhsMax =  -8.20952463995162E-14  3.48479147127551E+00
(PID.TID 0000.0001)      cg3d_init_res =   9.86490404958319E-01
(PID.TID 0000.0001)      cg3d_iters (last) =                 11
(PID.TID 0000.0001)      cg3d_last_res =   8.03255052856466E-05
(PID.TID 0000.0001) // =======================================================
(PID.TID 0000.0001) // Begin MONITOR dynamic field statistics
(PID.TID 0000.0001) // =======================================================
(PID.TID 0000.0001) %MON time_tsnumber                =             556243208
(PID.TID 0000.0001) %MON time_secondsf                =   6.6749184960000E+11
(PID.TID 0000.0001) %MON dynstat_eta_max              =   2.2380784316815E+03
(PID.TID 0000.0001) %MON dynstat_eta_min              =  -4.3498165581778E+03
(PID.TID 0000.0001) %MON dynstat_eta_mean             =   6.2207174997535E-09
(PID.TID 0000.0001) %MON dynstat_eta_sd               =   9.7868389029783E+02
(PID.TID 0000.0001) %MON dynstat_eta_del2             =   4.3451680826371E+00
(PID.TID 0000.0001) %MON dynstat_uvel_max             =   7.0157064210467E+01
(PID.TID 0000.0001) %MON dynstat_uvel_min             =  -6.0682453115951E+01
(PID.TID 0000.0001) %MON dynstat_uvel_mean            =   1.8348797659938E+00
(PID.TID 0000.0001) %MON dynstat_uvel_sd              =   1.2411063694667E+01
(PID.TID 0000.0001) %MON dynstat_uvel_del2            =   4.7663180684227E-02
(PID.TID 0000.0001) %MON dynstat_vvel_max             =   1.0276824891315E+02
(PID.TID 0000.0001) %MON dynstat_vvel_min             =  -5.4164360212473E+01
(PID.TID 0000.0001) %MON dynstat_vvel_mean            =   1.7898957525190E+00
(PID.TID 0000.0001) %MON dynstat_vvel_sd              =   1.2474863469654E+01
(PID.TID 0000.0001) %MON dynstat_vvel_del2            =   4.8077725266039E-02
(PID.TID 0000.0001) %MON dynstat_wvel_max             =   9.0048795487851E-01
(PID.TID 0000.0001) %MON dynstat_wvel_min             =  -2.0364930362264E+00
(PID.TID 0000.0001) %MON dynstat_wvel_mean            =   2.3743504457904E-18
(PID.TID 0000.0001) %MON dynstat_wvel_sd              =   9.2872973109153E-02
(PID.TID 0000.0001) %MON dynstat_wvel_del2            =   1.4698641858555E-03
(PID.TID 0000.0001) %MON dynstat_theta_max            =   5.0205830515795E+02
(PID.TID 0000.0001) %MON dynstat_theta_min            =   2.6617182599192E+02
(PID.TID 0000.0001) %MON dynstat_theta_mean           =   3.3729540120147E+02
(PID.TID 0000.0001) %MON dynstat_theta_sd             =   4.8953954280741E+01
(PID.TID 0000.0001) %MON dynstat_theta_del2           =   2.6887444480835E-02
(PID.TID 0000.0001) %MON dynstat_salt_max             =   1.7872659837315E+01
(PID.TID 0000.0001) %MON dynstat_salt_min             =  -1.8417293349834E+00
(PID.TID 0000.0001) %MON dynstat_salt_mean            =   3.2332218288707E+00
(PID.TID 0000.0001) %MON dynstat_salt_sd              =   3.9642848995484E+00
(PID.TID 0000.0001) %MON dynstat_salt_del2            =   1.2019079941186E-02
(PID.TID 0000.0001) %MON trAdv_CFL_u_max              =   5.4666387404493E-01
(PID.TID 0000.0001) %MON trAdv_CFL_v_max              =   4.0617043553079E-01
(PID.TID 0000.0001) %MON trAdv_CFL_w_max              =   9.3743648864676E-02
(PID.TID 0000.0001) %MON advcfl_uvel_max              =   5.4161173718181E-01
(PID.TID 0000.0001) %MON advcfl_vvel_max              =   4.2400162630859E-01
(PID.TID 0000.0001) %MON advcfl_wvel_max              =   9.7751665738869E-02
(PID.TID 0000.0001) %MON advcfl_W_hf_max              =   1.2218958217359E-01
(PID.TID 0000.0001) %MON am_eta_mean                  =   2.4413643278892E+10
(PID.TID 0000.0001) %MON am_uZo_mean                  =   3.1471205988205E+11
(PID.TID 0000.0001) %MON am_tot_mean                  =   3.3912570316094E+11
(PID.TID 0000.0001) %MON pe_b_mean                    =   3.9784976841604E+00
(PID.TID 0000.0001) %MON ke_max                       =   5.2424778431226E+03
(PID.TID 0000.0001) %MON ke_mean                      =   1.5804364658787E+02
(PID.TID 0000.0001) %MON ke_vol                       =   5.0995454902520E+19
(PID.TID 0000.0001) %MON vort_r_min                   =  -1.9530915876944E-04
(PID.TID 0000.0001) %MON vort_r_max                   =   3.1322857747629E-04
(PID.TID 0000.0001) %MON vort_a_mean                  =  -2.4511988419153E-21
(PID.TID 0000.0001) %MON vort_a_sd                    =   8.8847464047873E-05
(PID.TID 0000.0001) %MON vort_p_mean                  =  -2.4511988419153E-21
(PID.TID 0000.0001) %MON vort_p_sd                    =   8.8847464047873E-05
(PID.TID 0000.0001) %MON surfExpan_theta_mean         =  -3.4286726725998E-03
(PID.TID 0000.0001) %MON surfExpan_salt_mean          =  -1.6639492449352E-03
(PID.TID 0000.0001) %MON surfExpan_Heat_mean          =  -3.4580084265417E-01
(PID.TID 0000.0001) %MON En_Budget_T2PE_mean          =   1.8662981835474E+00
(PID.TID 0000.0001) // =======================================================
(PID.TID 0000.0001) // End MONITOR dynamic field statistics
(PID.TID 0000.0001) // =======================================================
(PID.TID 0000.0001) // =======================================================
(PID.TID 0000.0001) // Begin MONITOR Land statistics
(PID.TID 0000.0001) // =======================================================
(PID.TID 0000.0001) %MON land_time_sec                =   6.6749184960000E+11
(PID.TID 0000.0001) %MON land_SnwH_ave_G              =   3.8182864598679E-03
(PID.TID 0000.0001) %MON land_SnwH_ave_S              =   0.0000000000000E+00
(PID.TID 0000.0001) %MON land_SnwH_ave_T              =   0.0000000000000E+00
(PID.TID 0000.0001) %MON land_SnwH_ave_N              =   7.1510161846571E-03
(PID.TID 0000.0001) %MON land_SnwH_max_S              =   0.0000000000000E+00
(PID.TID 0000.0001) %MON land_SnwH_max_T              =   0.0000000000000E+00
(PID.TID 0000.0001) %MON land_SnwH_max_N              =   7.3268852746317E-02
(PID.TID 0000.0001) %MON land_Tsrf_ave_G              =   1.4780573726544E+01
(PID.TID 0000.0001) %MON land_Tsrf_ave_S              =   3.6159234210629E+01
(PID.TID 0000.0001) %MON land_Tsrf_ave_T              =   2.8199869658432E+01
(PID.TID 0000.0001) %MON land_Tsrf_ave_N              =   1.7564346572025E+00
(PID.TID 0000.0001) %MON land_Tsrf_min_S              =   3.1373299387977E+01
(PID.TID 0000.0001) %MON land_Tsrf_min_T              =   2.5999899665921E+01
(PID.TID 0000.0001) %MON land_Tsrf_min_N              =  -1.9958513222008E+01
(PID.TID 0000.0001) %MON land_Tsrf_max_S              =   4.0863131514022E+01
(PID.TID 0000.0001) %MON land_Tsrf_max_T              =   3.1182706848406E+01
(PID.TID 0000.0001) %MON land_Tsrf_max_N              =   2.8745786239434E+01
(PID.TID 0000.0001) %MON land_Tgr1_ave_G              =   1.4804876852280E+01
(PID.TID 0000.0001) %MON land_Tgr1_ave_S              =   3.6159234210629E+01
(PID.TID 0000.0001) %MON land_Tgr1_ave_T              =   2.8199869658432E+01
(PID.TID 0000.0001) %MON land_Tgr1_ave_N              =   1.8019503740839E+00
(PID.TID 0000.0001) %MON land_Tgr1_min_S              =   3.1373299387977E+01
(PID.TID 0000.0001) %MON land_Tgr1_min_T              =   2.5999899665921E+01
(PID.TID 0000.0001) %MON land_Tgr1_min_N              =  -1.9932202027787E+01
(PID.TID 0000.0001) %MON land_Tgr1_max_S              =   4.0863131514022E+01
(PID.TID 0000.0001) %MON land_Tgr1_max_T              =   3.1182706848406E+01
(PID.TID 0000.0001) %MON land_Tgr1_max_N              =   2.8745786239434E+01
(PID.TID 0000.0001) %MON land_Tgr2_ave_G              =   1.8545176308072E+01
(PID.TID 0000.0001) %MON land_Tgr2_ave_S              =   2.5507811842108E+01
(PID.TID 0000.0001) %MON land_Tgr2_ave_T              =   2.8640248102743E+01
(PID.TID 0000.0001) %MON land_Tgr2_ave_N              =   1.0249931680046E+01
(PID.TID 0000.0001) %MON land_Tgr2_min_S              =   2.1475351000932E+01
(PID.TID 0000.0001) %MON land_Tgr2_min_T              =   2.7869812948211E+01
(PID.TID 0000.0001) %MON land_Tgr2_min_N              =  -3.4988681855118E+00
(PID.TID 0000.0001) %MON land_Tgr2_max_S              =   2.8428058535361E+01
(PID.TID 0000.0001) %MON land_Tgr2_max_T              =   3.0668469790693E+01
(PID.TID 0000.0001) %MON land_Tgr2_max_N              =   3.1151089030772E+01
(PID.TID 0000.0001) %MON land_TotEnerg_G              =   1.0748415552757E+21
(PID.TID 0000.0001) %MON land_TotEnerg_S              =   1.3495061176425E+20
(PID.TID 0000.0001) %MON land_TotEnerg_T              =   9.7291673659489E+20
(PID.TID 0000.0001) %MON land_TotEnerg_N              =  -3.3025793083472E+19
(PID.TID 0000.0001) %MON land_grdW_ave_G              =   7.0721950496630E-01
(PID.TID 0000.0001) %MON land_grdW_ave_S              =   1.2696351795694E-01
(PID.TID 0000.0001) %MON land_grdW_ave_T              =   7.6794210735283E-01
(PID.TID 0000.0001) %MON land_grdW_ave_N              =   7.5982142044462E-01
(PID.TID 0000.0001) %MON land_grdW_min_S              =   1.5399242862851E-02
(PID.TID 0000.0001) %MON land_grdW_min_T              =   1.3153148408082E-01
(PID.TID 0000.0001) %MON land_grdW_min_N              =   4.4839778255896E-02
(PID.TID 0000.0001) // =======================================================
(PID.TID 0000.0001) // End MONITOR Land statistics
(PID.TID 0000.0001) // =======================================================
(PID.TID 0000.0001) // =======================================================
(PID.TID 0000.0001) // Begin MONITOR Therm.SeaIce statistics
(PID.TID 0000.0001) // =======================================================
(PID.TID 0000.0001) %MON thSI_time_sec                =   6.6749184960000E+11
(PID.TID 0000.0001) %MON thSI_Ice_Area_G              =   4.9770454426116E+13
(PID.TID 0000.0001) %MON thSI_Ice_Area_S              =   4.9770454426116E+13
(PID.TID 0000.0001) %MON thSI_Ice_Area_N              =   0.0000000000000E+00
(PID.TID 0000.0001) %MON thSI_IceH_ave_G              =   9.9187990715852E+00
(PID.TID 0000.0001) %MON thSI_IceH_ave_S              =   9.9187990715852E+00
(PID.TID 0000.0001) %MON thSI_IceH_ave_N              =   0.0000000000000E+00
(PID.TID 0000.0001) %MON thSI_IceH_max_S              =   2.2476300931626E+01
(PID.TID 0000.0001) %MON thSI_IceH_max_N              =   0.0000000000000E+00
(PID.TID 0000.0001) %MON thSI_SnwH_ave_G              =   4.8788010530420E-02
(PID.TID 0000.0001) %MON thSI_SnwH_ave_S              =   4.8788010530420E-02
(PID.TID 0000.0001) %MON thSI_SnwH_ave_N              =   0.0000000000000E+00
(PID.TID 0000.0001) %MON thSI_SnwH_max_S              =   3.2153000441568E-01
(PID.TID 0000.0001) %MON thSI_SnwH_max_N              =   0.0000000000000E+00
(PID.TID 0000.0001) %MON thSI_Tsrf_ave_G              =  -8.5235500732869E-01
(PID.TID 0000.0001) %MON thSI_Tsrf_ave_S              =  -8.5235500732869E-01
(PID.TID 0000.0001) %MON thSI_Tsrf_ave_N              =   0.0000000000000E+00
(PID.TID 0000.0001) %MON thSI_Tsrf_min_S              =  -8.7955117015928E+00
(PID.TID 0000.0001) %MON thSI_Tsrf_min_N              =   0.0000000000000E+00
(PID.TID 0000.0001) %MON thSI_Tsrf_max_S              =   0.0000000000000E+00
(PID.TID 0000.0001) %MON thSI_Tsrf_max_N              =   0.0000000000000E+00
(PID.TID 0000.0001) %MON thSI_Tic1_ave_G              =  -1.4100897420571E+01
(PID.TID 0000.0001) %MON thSI_Tic1_ave_S              =  -1.4100897420571E+01
(PID.TID 0000.0001) %MON thSI_Tic1_ave_N              =   0.0000000000000E+00
(PID.TID 0000.0001) %MON thSI_Tic1_min_S              =  -1.9924753012161E+01
(PID.TID 0000.0001) %MON thSI_Tic1_min_N              =   0.0000000000000E+00
(PID.TID 0000.0001) %MON thSI_Tic1_max_S              =  -1.4502585795144E-01
(PID.TID 0000.0001) %MON thSI_Tic1_max_N              =   0.0000000000000E+00
(PID.TID 0000.0001) %MON thSI_Tic2_ave_G              =  -6.1610511526504E+00
(PID.TID 0000.0001) %MON thSI_Tic2_ave_S              =  -6.1610511526504E+00
(PID.TID 0000.0001) %MON thSI_Tic2_ave_N              =   0.0000000000000E+00
(PID.TID 0000.0001) %MON thSI_Tic2_min_S              =  -7.6251438848577E+00
(PID.TID 0000.0001) %MON thSI_Tic2_min_N              =   0.0000000000000E+00
(PID.TID 0000.0001) %MON thSI_Tic2_max_S              =  -1.1635034002925E-02
(PID.TID 0000.0001) %MON thSI_Tic2_max_N              =   0.0000000000000E+00
(PID.TID 0000.0001) %MON thSI_TotEnerg_G              =  -1.5753939093556E+23
(PID.TID 0000.0001) // =======================================================
(PID.TID 0000.0001) // End MONITOR Therm.SeaIce statistics
(PID.TID 0000.0001) // =======================================================
 cg2d: Sum(rhs),rhsMax =  -2.18645436689258E-05  5.37077474158443E+03
(PID.TID 0000.0001)      cg2d_init_res =   9.34936391315008E+02
(PID.TID 0000.0001)      cg2d_iters(min,last) =      -1      23
(PID.TID 0000.0001)      cg2d_last_res =   3.99175962930023E-11
 cg3d: Sum(rhs),rhsMax =  -1.25999471273230E-14  4.18286636007595E+00
(PID.TID 0000.0001)      cg3d_init_res =   8.59522587295404E-01
(PID.TID 0000.0001)      cg3d_iters (last) =                 11
(PID.TID 0000.0001)      cg3d_last_res =   5.66111797800831E-05
(PID.TID 0000.0001) // =======================================================
(PID.TID 0000.0001) // Begin MONITOR dynamic field statistics
(PID.TID 0000.0001) // =======================================================
(PID.TID 0000.0001) %MON time_tsnumber                =             556243209
(PID.TID 0000.0001) %MON time_secondsf                =   6.6749185080000E+11
(PID.TID 0000.0001) %MON dynstat_eta_max              =   2.2377315995363E+03
(PID.TID 0000.0001) %MON dynstat_eta_min              =  -4.3570779548095E+03
(PID.TID 0000.0001) %MON dynstat_eta_mean             =   6.2209745265812E-09
(PID.TID 0000.0001) %MON dynstat_eta_sd               =   9.7872311833114E+02
(PID.TID 0000.0001) %MON dynstat_eta_del2             =   4.3468757268349E+00
(PID.TID 0000.0001) %MON dynstat_uvel_max             =   7.0791732877997E+01
(PID.TID 0000.0001) %MON dynstat_uvel_min             =  -6.0650321018995E+01
(PID.TID 0000.0001) %MON dynstat_uvel_mean            =   1.8354716016384E+00
(PID.TID 0000.0001) %MON dynstat_uvel_sd              =   1.2409955370578E+01
(PID.TID 0000.0001) %MON dynstat_uvel_del2            =   4.7681077421535E-02
(PID.TID 0000.0001) %MON dynstat_vvel_max             =   1.0298593867899E+02
(PID.TID 0000.0001) %MON dynstat_vvel_min             =  -5.4010842593595E+01
(PID.TID 0000.0001) %MON dynstat_vvel_mean            =   1.7902483349102E+00
(PID.TID 0000.0001) %MON dynstat_vvel_sd              =   1.2477113528608E+01
(PID.TID 0000.0001) %MON dynstat_vvel_del2            =   4.8004841155794E-02
(PID.TID 0000.0001) %MON dynstat_wvel_max             =   1.0137231929296E+00
(PID.TID 0000.0001) %MON dynstat_wvel_min             =  -2.0375197564371E+00
(PID.TID 0000.0001) %MON dynstat_wvel_mean            =   1.6959646041360E-19
(PID.TID 0000.0001) %MON dynstat_wvel_sd              =   9.2978392807726E-02
(PID.TID 0000.0001) %MON dynstat_wvel_del2            =   1.4750446122213E-03
(PID.TID 0000.0001) %MON dynstat_theta_max            =   5.0207624542708E+02
(PID.TID 0000.0001) %MON dynstat_theta_min            =   2.6615562793711E+02
(PID.TID 0000.0001) %MON dynstat_theta_mean           =   3.3729519420653E+02
(PID.TID 0000.0001) %MON dynstat_theta_sd             =   4.8954141314619E+01
(PID.TID 0000.0001) %MON dynstat_theta_del2           =   2.6898148979296E-02
(PID.TID 0000.0001) %MON dynstat_salt_max             =   1.7869515954177E+01
(PID.TID 0000.0001) %MON dynstat_salt_min             =  -1.8563824487899E+00
(PID.TID 0000.0001) %MON dynstat_salt_mean            =   3.2330680768476E+00
(PID.TID 0000.0001) %MON dynstat_salt_sd              =   3.9641052186265E+00
(PID.TID 0000.0001) %MON dynstat_salt_del2            =   1.2012847016378E-02
(PID.TID 0000.0001) %MON trAdv_CFL_u_max              =   5.5642244600003E-01
(PID.TID 0000.0001) %MON trAdv_CFL_v_max              =   4.0043119285783E-01
(PID.TID 0000.0001) %MON trAdv_CFL_w_max              =   1.0459190214592E-01
(PID.TID 0000.0001) %MON advcfl_uvel_max              =   5.3160775908240E-01
(PID.TID 0000.0001) %MON advcfl_vvel_max              =   4.2045672965694E-01
(PID.TID 0000.0001) %MON advcfl_wvel_max              =   9.7800948308982E-02
(PID.TID 0000.0001) %MON advcfl_W_hf_max              =   1.2225118538623E-01
(PID.TID 0000.0001) %MON am_eta_mean                  =   2.4422970310592E+10
(PID.TID 0000.0001) %MON am_uZo_mean                  =   3.1471259650368E+11
(PID.TID 0000.0001) %MON am_tot_mean                  =   3.3913556681427E+11
(PID.TID 0000.0001) %MON pe_b_mean                    =   3.9788166263010E+00
(PID.TID 0000.0001) %MON ke_max                       =   5.2554559119037E+03
(PID.TID 0000.0001) %MON ke_mean                      =   1.5805980590505E+02
(PID.TID 0000.0001) %MON ke_vol                       =   5.0995454902520E+19
(PID.TID 0000.0001) %MON vort_r_min                   =  -1.8461284599314E-04
(PID.TID 0000.0001) %MON vort_r_max                   =   3.0425766661421E-04
(PID.TID 0000.0001) %MON vort_a_mean                  =  -6.3731169889797E-20
(PID.TID 0000.0001) %MON vort_a_sd                    =   8.8848707094708E-05
(PID.TID 0000.0001) %MON vort_p_mean                  =  -6.3731169889797E-20
(PID.TID 0000.0001) %MON vort_p_sd                    =   8.8848707094708E-05
(PID.TID 0000.0001) %MON surfExpan_theta_mean         =  -3.3835352179033E-03
(PID.TID 0000.0001) %MON surfExpan_salt_mean          =  -1.6493539841951E-03
(PID.TID 0000.0001) %MON surfExpan_Heat_mean          =  -3.4124847753805E-01
(PID.TID 0000.0001) %MON En_Budget_T2PE_mean          =   1.8647957812951E+00
(PID.TID 0000.0001) // =======================================================
(PID.TID 0000.0001) // End MONITOR dynamic field statistics
(PID.TID 0000.0001) // =======================================================
(PID.TID 0000.0001) // =======================================================
(PID.TID 0000.0001) // Begin MONITOR Land statistics
(PID.TID 0000.0001) // =======================================================
(PID.TID 0000.0001) %MON land_time_sec                =   6.6749185080000E+11
(PID.TID 0000.0001) %MON land_SnwH_ave_G              =   3.8207725013739E-03
(PID.TID 0000.0001) %MON land_SnwH_ave_S              =   0.0000000000000E+00
(PID.TID 0000.0001) %MON land_SnwH_ave_T              =   0.0000000000000E+00
(PID.TID 0000.0001) %MON land_SnwH_ave_N              =   7.1556721273769E-03
(PID.TID 0000.0001) %MON land_SnwH_max_S              =   0.0000000000000E+00
(PID.TID 0000.0001) %MON land_SnwH_max_T              =   0.0000000000000E+00
(PID.TID 0000.0001) %MON land_SnwH_max_N              =   7.3268868904884E-02
(PID.TID 0000.0001) %MON land_Tsrf_ave_G              =   1.4785370494133E+01
(PID.TID 0000.0001) %MON land_Tsrf_ave_S              =   3.6192268446013E+01
(PID.TID 0000.0001) %MON land_Tsrf_ave_T              =   2.8207125108225E+01
(PID.TID 0000.0001) %MON land_Tsrf_ave_N              =   1.7548382910010E+00
(PID.TID 0000.0001) %MON land_Tsrf_min_S              =   3.1385607063683E+01
(PID.TID 0000.0001) %MON land_Tsrf_min_T              =   2.6006580897749E+01
(PID.TID 0000.0001) %MON land_Tsrf_min_N              =  -1.9955357375063E+01
(PID.TID 0000.0001) %MON land_Tsrf_max_S              =   4.0927435942112E+01
(PID.TID 0000.0001) %MON land_Tsrf_max_T              =   3.1286368711062E+01
(PID.TID 0000.0001) %MON land_Tsrf_max_N              =   2.8692117738310E+01
(PID.TID 0000.0001) %MON land_Tgr1_ave_G              =   1.4809824845787E+01
(PID.TID 0000.0001) %MON land_Tgr1_ave_S              =   3.6192268446013E+01
(PID.TID 0000.0001) %MON land_Tgr1_ave_T              =   2.8207125108225E+01
(PID.TID 0000.0001) %MON land_Tgr1_ave_N              =   1.8006372289031E+00
(PID.TID 0000.0001) %MON land_Tgr1_min_S              =   3.1385607063683E+01
(PID.TID 0000.0001) %MON land_Tgr1_min_T              =   2.6006580897749E+01
(PID.TID 0000.0001) %MON land_Tgr1_min_N              =  -1.9929083489309E+01
(PID.TID 0000.0001) %MON land_Tgr1_max_S              =   4.0927435942112E+01
(PID.TID 0000.0001) %MON land_Tgr1_max_T              =   3.1286368711062E+01
(PID.TID 0000.0001) %MON land_Tgr1_max_N              =   2.8692117738310E+01
(PID.TID 0000.0001) %MON land_Tgr2_ave_G              =   1.8545093685476E+01
(PID.TID 0000.0001) %MON land_Tgr2_ave_S              =   2.5508368602349E+01
(PID.TID 0000.0001) %MON land_Tgr2_ave_T              =   2.8640231375196E+01
(PID.TID 0000.0001) %MON land_Tgr2_ave_N              =   1.0249697058622E+01
(PID.TID 0000.0001) %MON land_Tgr2_min_S              =   2.1476034218003E+01
(PID.TID 0000.0001) %MON land_Tgr2_min_T              =   2.7869821671885E+01
(PID.TID 0000.0001) %MON land_Tgr2_min_N              =  -3.4992697563865E+00
(PID.TID 0000.0001) %MON land_Tgr2_max_S              =   2.8428489691120E+01
(PID.TID 0000.0001) %MON land_Tgr2_max_T              =   3.0668386524966E+01
(PID.TID 0000.0001) %MON land_Tgr2_max_N              =   3.1150972596753E+01
(PID.TID 0000.0001) %MON land_TotEnerg_G              =   1.0748310974839E+21
(PID.TID 0000.0001) %MON land_TotEnerg_S              =   1.3495763124699E+20
(PID.TID 0000.0001) %MON land_TotEnerg_T              =   9.7291564256857E+20
(PID.TID 0000.0001) %MON land_TotEnerg_N              =  -3.3042176331617E+19
(PID.TID 0000.0001) %MON land_grdW_ave_G              =   7.0721387608897E-01
(PID.TID 0000.0001) %MON land_grdW_ave_S              =   1.2696430833637E-01
(PID.TID 0000.0001) %MON land_grdW_ave_T              =   7.6793014106686E-01
(PID.TID 0000.0001) %MON land_grdW_ave_N              =   7.5981922138293E-01
(PID.TID 0000.0001) %MON land_grdW_min_S              =   1.5327198723381E-02
(PID.TID 0000.0001) %MON land_grdW_min_T              =   1.3159029645531E-01
(PID.TID 0000.0001) %MON land_grdW_min_N              =   4.4779860023250E-02
(PID.TID 0000.0001) // =======================================================
(PID.TID 0000.0001) // End MONITOR Land statistics
(PID.TID 0000.0001) // =======================================================
(PID.TID 0000.0001) // =======================================================
(PID.TID 0000.0001) // Begin MONITOR Therm.SeaIce statistics
(PID.TID 0000.0001) // =======================================================
(PID.TID 0000.0001) %MON thSI_time_sec                =   6.6749185080000E+11
(PID.TID 0000.0001) %MON thSI_Ice_Area_G              =   4.9768862849885E+13
(PID.TID 0000.0001) %MON thSI_Ice_Area_S              =   4.9768862849885E+13
(PID.TID 0000.0001) %MON thSI_Ice_Area_N              =   0.0000000000000E+00
(PID.TID 0000.0001) %MON thSI_IceH_ave_G              =   9.9190336371361E+00
(PID.TID 0000.0001) %MON thSI_IceH_ave_S              =   9.9190336371361E+00
(PID.TID 0000.0001) %MON thSI_IceH_ave_N              =   0.0000000000000E+00
(PID.TID 0000.0001) %MON thSI_IceH_max_S              =   2.2476306403447E+01
(PID.TID 0000.0001) %MON thSI_IceH_max_N              =   0.0000000000000E+00
(PID.TID 0000.0001) %MON thSI_SnwH_ave_G              =   4.8709916760438E-02
(PID.TID 0000.0001) %MON thSI_SnwH_ave_S              =   4.8709916760438E-02
(PID.TID 0000.0001) %MON thSI_SnwH_ave_N              =   0.0000000000000E+00
(PID.TID 0000.0001) %MON thSI_SnwH_max_S              =   3.2131935813990E-01
(PID.TID 0000.0001) %MON thSI_SnwH_max_N              =   0.0000000000000E+00
(PID.TID 0000.0001) %MON thSI_Tsrf_ave_G              =  -8.5475928688877E-01
(PID.TID 0000.0001) %MON thSI_Tsrf_ave_S              =  -8.5475928688877E-01
(PID.TID 0000.0001) %MON thSI_Tsrf_ave_N              =   0.0000000000000E+00
(PID.TID 0000.0001) %MON thSI_Tsrf_min_S              =  -8.7952009657705E+00
(PID.TID 0000.0001) %MON thSI_Tsrf_min_N              =   0.0000000000000E+00
(PID.TID 0000.0001) %MON thSI_Tsrf_max_S              =   0.0000000000000E+00
(PID.TID 0000.0001) %MON thSI_Tsrf_max_N              =   0.0000000000000E+00
(PID.TID 0000.0001) %MON thSI_Tic1_ave_G              =  -1.4100183558840E+01
(PID.TID 0000.0001) %MON thSI_Tic1_ave_S              =  -1.4100183558840E+01
(PID.TID 0000.0001) %MON thSI_Tic1_ave_N              =   0.0000000000000E+00
(PID.TID 0000.0001) %MON thSI_Tic1_min_S              =  -1.9924305945625E+01
(PID.TID 0000.0001) %MON thSI_Tic1_min_N              =   0.0000000000000E+00
(PID.TID 0000.0001) %MON thSI_Tic1_max_S              =  -1.4546616858979E-01
(PID.TID 0000.0001) %MON thSI_Tic1_max_N              =   0.0000000000000E+00
(PID.TID 0000.0001) %MON thSI_Tic2_ave_G              =  -6.1609994870993E+00
(PID.TID 0000.0001) %MON thSI_Tic2_ave_S              =  -6.1609994870993E+00
(PID.TID 0000.0001) %MON thSI_Tic2_ave_N              =   0.0000000000000E+00
(PID.TID 0000.0001) %MON thSI_Tic2_min_S              =  -7.6251459921579E+00
(PID.TID 0000.0001) %MON thSI_Tic2_min_N              =   0.0000000000000E+00
(PID.TID 0000.0001) %MON thSI_Tic2_max_S              =  -1.9059554533989E-02
(PID.TID 0000.0001) %MON thSI_Tic2_max_N              =   0.0000000000000E+00
(PID.TID 0000.0001) %MON thSI_TotEnerg_G              =  -1.5753714290862E+23
(PID.TID 0000.0001) // =======================================================
(PID.TID 0000.0001) // End MONITOR Therm.SeaIce statistics
(PID.TID 0000.0001) // =======================================================
(PID.TID 0000.0001)   Exporting atmospheric surf fluxes at iter= 556243209
(PID.TID 0000.0001)   Importing  oceanic surface fields at iter= 556243209
 cg2d: Sum(rhs),rhsMax =  -2.18648929148912E-05  5.36720872538401E+03
(PID.TID 0000.0001)      cg2d_init_res =   9.42944712209663E+02
(PID.TID 0000.0001)      cg2d_iters(min,last) =      -1      23
(PID.TID 0000.0001)      cg2d_last_res =   4.00696394504050E-11
 cg3d: Sum(rhs),rhsMax =  -1.32304757427537E-13  4.81078075422256E+00
(PID.TID 0000.0001)      cg3d_init_res =   8.22261388047124E-01
(PID.TID 0000.0001)      cg3d_iters (last) =                 10
(PID.TID 0000.0001)      cg3d_last_res =   7.65795886757205E-05
(PID.TID 0000.0001) // =======================================================
(PID.TID 0000.0001) // Begin MONITOR dynamic field statistics
(PID.TID 0000.0001) // =======================================================
(PID.TID 0000.0001) %MON time_tsnumber                =             556243210
(PID.TID 0000.0001) %MON time_secondsf                =   6.6749185200000E+11
(PID.TID 0000.0001) %MON dynstat_eta_max              =   2.2373775304753E+03
(PID.TID 0000.0001) %MON dynstat_eta_min              =  -4.3640240265987E+03
(PID.TID 0000.0001) %MON dynstat_eta_mean             =   6.2208460131674E-09
(PID.TID 0000.0001) %MON dynstat_eta_sd               =   9.7876964289237E+02
(PID.TID 0000.0001) %MON dynstat_eta_del2             =   4.3489847217152E+00
(PID.TID 0000.0001) %MON dynstat_uvel_max             =   7.2054587075155E+01
(PID.TID 0000.0001) %MON dynstat_uvel_min             =  -6.0586661027925E+01
(PID.TID 0000.0001) %MON dynstat_uvel_mean            =   1.8360158425503E+00
(PID.TID 0000.0001) %MON dynstat_uvel_sd              =   1.2408843380215E+01
(PID.TID 0000.0001) %MON dynstat_uvel_del2            =   4.7706988789231E-02
(PID.TID 0000.0001) %MON dynstat_vvel_max             =   1.0317447777574E+02
(PID.TID 0000.0001) %MON dynstat_vvel_min             =  -5.3849410012296E+01
(PID.TID 0000.0001) %MON dynstat_vvel_mean            =   1.7905318140418E+00
(PID.TID 0000.0001) %MON dynstat_vvel_sd              =   1.2479361540753E+01
(PID.TID 0000.0001) %MON dynstat_vvel_del2            =   4.7923033731992E-02
(PID.TID 0000.0001) %MON dynstat_wvel_max             =   1.0976898268224E+00
(PID.TID 0000.0001) %MON dynstat_wvel_min             =  -1.9201694734366E+00
(PID.TID 0000.0001) %MON dynstat_wvel_mean            =   8.4798230206798E-20
(PID.TID 0000.0001) %MON dynstat_wvel_sd              =   9.3118155335364E-02
(PID.TID 0000.0001) %MON dynstat_wvel_del2            =   1.4806108026918E-03
(PID.TID 0000.0001) %MON dynstat_theta_max            =   5.0209317272206E+02
(PID.TID 0000.0001) %MON dynstat_theta_min            =   2.6613947417213E+02
(PID.TID 0000.0001) %MON dynstat_theta_mean           =   3.3729495093924E+02
(PID.TID 0000.0001) %MON dynstat_theta_sd             =   4.8954344399876E+01
(PID.TID 0000.0001) %MON dynstat_theta_del2           =   2.6906454300009E-02
(PID.TID 0000.0001) %MON dynstat_salt_max             =   1.7863240407965E+01
(PID.TID 0000.0001) %MON dynstat_salt_min             =  -1.8703251893055E+00
(PID.TID 0000.0001) %MON dynstat_salt_mean            =   3.2329275700147E+00
(PID.TID 0000.0001) %MON dynstat_salt_sd              =   3.9639667273950E+00
(PID.TID 0000.0001) %MON dynstat_salt_del2            =   1.2007671387083E-02
(PID.TID 0000.0001) %MON trAdv_CFL_u_max              =   5.6656542524427E-01
(PID.TID 0000.0001) %MON trAdv_CFL_v_max              =   3.9303492610683E-01
(PID.TID 0000.0001) %MON trAdv_CFL_w_max              =   1.0987269567025E-01
(PID.TID 0000.0001) %MON advcfl_uvel_max              =   5.2014735233707E-01
(PID.TID 0000.0001) %MON advcfl_vvel_max              =   4.1401795840632E-01
(PID.TID 0000.0001) %MON advcfl_wvel_max              =   9.2168134724958E-02
(PID.TID 0000.0001) %MON advcfl_W_hf_max              =   1.1521016840620E-01
(PID.TID 0000.0001) %MON am_eta_mean                  =   2.4432497645838E+10
(PID.TID 0000.0001) %MON am_uZo_mean                  =   3.1471287499409E+11
(PID.TID 0000.0001) %MON am_tot_mean                  =   3.3914537263992E+11
(PID.TID 0000.0001) %MON pe_b_mean                    =   3.9791949091761E+00
(PID.TID 0000.0001) %MON ke_max                       =   5.2656380814477E+03
(PID.TID 0000.0001) %MON ke_mean                      =   1.5807572672971E+02
(PID.TID 0000.0001) %MON ke_vol                       =   5.0995454902520E+19
(PID.TID 0000.0001) %MON vort_r_min                   =  -1.7985765789201E-04
(PID.TID 0000.0001) %MON vort_r_max                   =   2.7462984391632E-04
(PID.TID 0000.0001) %MON vort_a_mean                  =  -5.1475175680220E-20
(PID.TID 0000.0001) %MON vort_a_sd                    =   8.8849964389875E-05
(PID.TID 0000.0001) %MON vort_p_mean                  =  -5.1475175680220E-20
(PID.TID 0000.0001) %MON vort_p_sd                    =   8.8849964389875E-05
(PID.TID 0000.0001) %MON surfExpan_theta_mean         =  -3.3378621562053E-03
(PID.TID 0000.0001) %MON surfExpan_salt_mean          =  -1.6657597965888E-03
(PID.TID 0000.0001) %MON surfExpan_Heat_mean          =  -3.3664209345596E-01
(PID.TID 0000.0001) %MON En_Budget_T2PE_mean          =   1.8639707163624E+00
(PID.TID 0000.0001) // =======================================================
(PID.TID 0000.0001) // End MONITOR dynamic field statistics
(PID.TID 0000.0001) // =======================================================
(PID.TID 0000.0001) // =======================================================
(PID.TID 0000.0001) // Begin MONITOR Land statistics
(PID.TID 0000.0001) // =======================================================
(PID.TID 0000.0001) %MON land_time_sec                =   6.6749185200000E+11
(PID.TID 0000.0001) %MON land_SnwH_ave_G              =   3.8232642868482E-03
(PID.TID 0000.0001) %MON land_SnwH_ave_S              =   0.0000000000000E+00
(PID.TID 0000.0001) %MON land_SnwH_ave_T              =   0.0000000000000E+00
(PID.TID 0000.0001) %MON land_SnwH_ave_N              =   7.1603388275951E-03
(PID.TID 0000.0001) %MON land_SnwH_max_S              =   0.0000000000000E+00
(PID.TID 0000.0001) %MON land_SnwH_max_T              =   0.0000000000000E+00
(PID.TID 0000.0001) %MON land_SnwH_max_N              =   7.3268881137994E-02
(PID.TID 0000.0001) %MON land_Tsrf_ave_G              =   1.4790406189499E+01
(PID.TID 0000.0001) %MON land_Tsrf_ave_S              =   3.6226172255438E+01
(PID.TID 0000.0001) %MON land_Tsrf_ave_T              =   2.8214211362077E+01
(PID.TID 0000.0001) %MON land_Tsrf_ave_N              =   1.7536659370973E+00
(PID.TID 0000.0001) %MON land_Tsrf_min_S              =   3.1396150766454E+01
(PID.TID 0000.0001) %MON land_Tsrf_min_T              =   2.6014319406208E+01
(PID.TID 0000.0001) %MON land_Tsrf_min_N              =  -1.9952217618404E+01
(PID.TID 0000.0001) %MON land_Tsrf_max_S              =   4.0990572531497E+01
(PID.TID 0000.0001) %MON land_Tsrf_max_T              =   3.1376999049508E+01
(PID.TID 0000.0001) %MON land_Tsrf_max_N              =   2.8637965828555E+01
(PID.TID 0000.0001) %MON land_Tgr1_ave_G              =   1.4814961834046E+01
(PID.TID 0000.0001) %MON land_Tgr1_ave_S              =   3.6226172255438E+01
(PID.TID 0000.0001) %MON land_Tgr1_ave_T              =   2.8214211362077E+01
(PID.TID 0000.0001) %MON land_Tgr1_ave_N              =   1.7996545797583E+00
(PID.TID 0000.0001) %MON land_Tgr1_min_S              =   3.1396150766454E+01
(PID.TID 0000.0001) %MON land_Tgr1_min_T              =   2.6014319406208E+01
(PID.TID 0000.0001) %MON land_Tgr1_min_N              =  -1.9925976387768E+01
(PID.TID 0000.0001) %MON land_Tgr1_max_S              =   4.0990572531497E+01
(PID.TID 0000.0001) %MON land_Tgr1_max_T              =   3.1376999049508E+01
(PID.TID 0000.0001) %MON land_Tgr1_max_N              =   2.8637965828555E+01
(PID.TID 0000.0001) %MON land_Tgr2_ave_G              =   1.8545011180792E+01
(PID.TID 0000.0001) %MON land_Tgr2_ave_S              =   2.5508927145719E+01
(PID.TID 0000.0001) %MON land_Tgr2_ave_T              =   2.8640214888355E+01
(PID.TID 0000.0001) %MON land_Tgr2_ave_N              =   1.0249462193812E+01
(PID.TID 0000.0001) %MON land_Tgr2_min_S              =   2.1476719630437E+01
(PID.TID 0000.0001) %MON land_Tgr2_min_T              =   2.7869830488301E+01
(PID.TID 0000.0001) %MON land_Tgr2_min_N              =  -3.4996717558465E+00
(PID.TID 0000.0001) %MON land_Tgr2_max_S              =   2.8428922857365E+01
(PID.TID 0000.0001) %MON land_Tgr2_max_T              =   3.0668302572859E+01
(PID.TID 0000.0001) %MON land_Tgr2_max_N              =   3.1150853625393E+01
(PID.TID 0000.0001) %MON land_TotEnerg_G              =   1.0748209973826E+21
(PID.TID 0000.0001) %MON land_TotEnerg_S              =   1.3496477386192E+20
(PID.TID 0000.0001) %MON land_TotEnerg_T              =   9.7291444230994E+20
(PID.TID 0000.0001) %MON land_TotEnerg_N              =  -3.3058218789274E+19
(PID.TID 0000.0001) %MON land_grdW_ave_G              =   7.0720819694070E-01
(PID.TID 0000.0001) %MON land_grdW_ave_S              =   1.2696531247155E-01
(PID.TID 0000.0001) %MON land_grdW_ave_T              =   7.6791799356208E-01
(PID.TID 0000.0001) %MON land_grdW_ave_N              =   7.5981702127312E-01
(PID.TID 0000.0001) %MON land_grdW_min_S              =   1.5255847245776E-02
(PID.TID 0000.0001) %MON land_grdW_min_T              =   1.3165265265075E-01
(PID.TID 0000.0001) %MON land_grdW_min_N              =   4.4721734249130E-02
(PID.TID 0000.0001) // =======================================================
(PID.TID 0000.0001) // End MONITOR Land statistics
(PID.TID 0000.0001) // =======================================================
(PID.TID 0000.0001) // =======================================================
(PID.TID 0000.0001) // Begin MONITOR Therm.SeaIce statistics
(PID.TID 0000.0001) // =======================================================
(PID.TID 0000.0001) %MON thSI_time_sec                =   6.6749185200000E+11
(PID.TID 0000.0001) %MON thSI_Ice_Area_G              =   4.9767281117974E+13
(PID.TID 0000.0001) %MON thSI_Ice_Area_S              =   4.9767281117974E+13
(PID.TID 0000.0001) %MON thSI_Ice_Area_N              =   0.0000000000000E+00
(PID.TID 0000.0001) %MON thSI_IceH_ave_G              =   9.9192666037966E+00
(PID.TID 0000.0001) %MON thSI_IceH_ave_S              =   9.9192666037966E+00
(PID.TID 0000.0001) %MON thSI_IceH_ave_N              =   0.0000000000000E+00
(PID.TID 0000.0001) %MON thSI_IceH_max_S              =   2.2476311872466E+01
(PID.TID 0000.0001) %MON thSI_IceH_max_N              =   0.0000000000000E+00
(PID.TID 0000.0001) %MON thSI_SnwH_ave_G              =   4.8631839311543E-02
(PID.TID 0000.0001) %MON thSI_SnwH_ave_S              =   4.8631839311543E-02
(PID.TID 0000.0001) %MON thSI_SnwH_ave_N              =   0.0000000000000E+00
(PID.TID 0000.0001) %MON thSI_SnwH_max_S              =   3.2111069741453E-01
(PID.TID 0000.0001) %MON thSI_SnwH_max_N              =   0.0000000000000E+00
(PID.TID 0000.0001) %MON thSI_Tsrf_ave_G              =  -8.5685562181966E-01
(PID.TID 0000.0001) %MON thSI_Tsrf_ave_S              =  -8.5685562181966E-01
(PID.TID 0000.0001) %MON thSI_Tsrf_ave_N              =   0.0000000000000E+00
(PID.TID 0000.0001) %MON thSI_Tsrf_min_S              =  -8.7970737471701E+00
(PID.TID 0000.0001) %MON thSI_Tsrf_min_N              =   0.0000000000000E+00
(PID.TID 0000.0001) %MON thSI_Tsrf_max_S              =   0.0000000000000E+00
(PID.TID 0000.0001) %MON thSI_Tsrf_max_N              =   0.0000000000000E+00
(PID.TID 0000.0001) %MON thSI_Tic1_ave_G              =  -1.4099469588762E+01
(PID.TID 0000.0001) %MON thSI_Tic1_ave_S              =  -1.4099469588762E+01
(PID.TID 0000.0001) %MON thSI_Tic1_ave_N              =   0.0000000000000E+00
(PID.TID 0000.0001) %MON thSI_Tic1_min_S              =  -1.9923858818504E+01
(PID.TID 0000.0001) %MON thSI_Tic1_min_N              =   0.0000000000000E+00
(PID.TID 0000.0001) %MON thSI_Tic1_max_S              =  -1.4591572319112E-01
(PID.TID 0000.0001) %MON thSI_Tic1_max_N              =   0.0000000000000E+00
(PID.TID 0000.0001) %MON thSI_Tic2_ave_G              =  -6.1609408398476E+00
(PID.TID 0000.0001) %MON thSI_Tic2_ave_S              =  -6.1609408398476E+00
(PID.TID 0000.0001) %MON thSI_Tic2_ave_N              =   0.0000000000000E+00
(PID.TID 0000.0001) %MON thSI_Tic2_min_S              =  -7.6251480943512E+00
(PID.TID 0000.0001) %MON thSI_Tic2_min_N              =   0.0000000000000E+00
(PID.TID 0000.0001) %MON thSI_Tic2_max_S              =  -1.4342928511084E-02
(PID.TID 0000.0001) %MON thSI_Tic2_max_N              =   0.0000000000000E+00
(PID.TID 0000.0001) %MON thSI_TotEnerg_G              =  -1.5753490097887E+23
(PID.TID 0000.0001) // =======================================================
(PID.TID 0000.0001) // End MONITOR Therm.SeaIce statistics
(PID.TID 0000.0001) // =======================================================
 Compute Stats, Diag. #    187  SI_Fract  vol(   0 ): 5.100E+14  Parms: SM P    M1      
 Compute Stats, Diag. #    188  SI_Thick  vol(   0 ): 4.977E+13  Parms: SM PC   M1      
    use Counter Mate  #    187  SI_Fract  vol(   0 ): 5.100E+14 integral 4.977E+13
 Compute Stats, Diag. #    273  aim_pCO2  vol(   0 ): 5.100E+14  Parms: SM P    L1      
 Compute Stats, Diag. #    279  CPL_fCO2  vol(   0 ): 5.100E+14  Parms: SM      M1      
 Compute Stats, Diag. #    275  CPL_MxlD  vol(   0 ): 5.100E+14  Parms: SM      M1      
 Compute Stats, Diag. #    276  CPL_SST   vol(   0 ): 5.100E+14  Parms: SM      M1      
 Compute Stats, Diag. #    277  CPL_SSS   vol(   0 ): 5.100E+14  Parms: SM      M1      
 Compute Stats, Diag. #    278  CPL_Vel2  vol(   0 ): 5.100E+14  Parms: SM      M1      
 cg2d: Sum(rhs),rhsMax =  -2.18651839531958E-05  5.34688185271511E+03
(PID.TID 0000.0001)      cg2d_init_res =   9.44250854560100E+02
(PID.TID 0000.0001)      cg2d_iters(min,last) =      -1      23
(PID.TID 0000.0001)      cg2d_last_res =   3.98911066689538E-11
 cg3d: Sum(rhs),rhsMax =  -1.70289130019263E-14  5.28849835338745E+00
(PID.TID 0000.0001)      cg3d_init_res =   7.10638543518797E-01
(PID.TID 0000.0001)      cg3d_iters (last) =                 10
(PID.TID 0000.0001)      cg3d_last_res =   7.74522983012040E-05
(PID.TID 0000.0001) // =======================================================
(PID.TID 0000.0001) // Begin MONITOR dynamic field statistics
(PID.TID 0000.0001) // =======================================================
(PID.TID 0000.0001) %MON time_tsnumber                =             556243211
(PID.TID 0000.0001) %MON time_secondsf                =   6.6749185320000E+11
(PID.TID 0000.0001) %MON dynstat_eta_max              =   2.2370004983902E+03
(PID.TID 0000.0001) %MON dynstat_eta_min              =  -4.3706861820035E+03
(PID.TID 0000.0001) %MON dynstat_eta_mean             =   6.2208331618260E-09
(PID.TID 0000.0001) %MON dynstat_eta_sd               =   9.7882478891321E+02
(PID.TID 0000.0001) %MON dynstat_eta_del2             =   4.3518772212516E+00
(PID.TID 0000.0001) %MON dynstat_uvel_max             =   7.3227417999120E+01
(PID.TID 0000.0001) %MON dynstat_uvel_min             =  -6.0493929626588E+01
(PID.TID 0000.0001) %MON dynstat_uvel_mean            =   1.8365213611502E+00
(PID.TID 0000.0001) %MON dynstat_uvel_sd              =   1.2407724622825E+01
(PID.TID 0000.0001) %MON dynstat_uvel_del2            =   4.7741491366472E-02
(PID.TID 0000.0001) %MON dynstat_vvel_max             =   1.0333239532319E+02
(PID.TID 0000.0001) %MON dynstat_vvel_min             =  -5.3680536760086E+01
(PID.TID 0000.0001) %MON dynstat_vvel_mean            =   1.7907428559747E+00
(PID.TID 0000.0001) %MON dynstat_vvel_sd              =   1.2481618930379E+01
(PID.TID 0000.0001) %MON dynstat_vvel_del2            =   4.7842006127296E-02
(PID.TID 0000.0001) %MON dynstat_wvel_max             =   1.1353439259029E+00
(PID.TID 0000.0001) %MON dynstat_wvel_min             =  -2.2603346874224E+00
(PID.TID 0000.0001) %MON dynstat_wvel_mean            =  -5.0878938124079E-18
(PID.TID 0000.0001) %MON dynstat_wvel_sd              =   9.3279826966947E-02
(PID.TID 0000.0001) %MON dynstat_wvel_del2            =   1.4898904846042E-03
(PID.TID 0000.0001) %MON dynstat_theta_max            =   5.0210908483119E+02
(PID.TID 0000.0001) %MON dynstat_theta_min            =   2.6612336209362E+02
(PID.TID 0000.0001) %MON dynstat_theta_mean           =   3.3729470964275E+02
(PID.TID 0000.0001) %MON dynstat_theta_sd             =   4.8954529578968E+01
(PID.TID 0000.0001) %MON dynstat_theta_del2           =   2.6916935095146E-02
(PID.TID 0000.0001) %MON dynstat_salt_max             =   1.7856399627317E+01
(PID.TID 0000.0001) %MON dynstat_salt_min             =  -1.9108127835469E+00
(PID.TID 0000.0001) %MON dynstat_salt_mean            =   3.2327839557278E+00
(PID.TID 0000.0001) %MON dynstat_salt_sd              =   3.9637778921426E+00
(PID.TID 0000.0001) %MON dynstat_salt_del2            =   1.2002022047964E-02
(PID.TID 0000.0001) %MON trAdv_CFL_u_max              =   5.7667238966153E-01
(PID.TID 0000.0001) %MON trAdv_CFL_v_max              =   3.8456187423475E-01
(PID.TID 0000.0001) %MON trAdv_CFL_w_max              =   1.0808301695876E-01
(PID.TID 0000.0001) %MON advcfl_uvel_max              =   5.0819246425890E-01
(PID.TID 0000.0001) %MON advcfl_vvel_max              =   4.0541322826939E-01
(PID.TID 0000.0001) %MON advcfl_wvel_max              =   1.0849606499628E-01
(PID.TID 0000.0001) %MON advcfl_W_hf_max              =   1.3562008124535E-01
(PID.TID 0000.0001) %MON am_eta_mean                  =   2.4442205016959E+10
(PID.TID 0000.0001) %MON am_uZo_mean                  =   3.1471295826195E+11
(PID.TID 0000.0001) %MON am_tot_mean                  =   3.3915516327891E+11
(PID.TID 0000.0001) %MON pe_b_mean                    =   3.9796433148836E+00
(PID.TID 0000.0001) %MON ke_max                       =   5.2739071184278E+03
(PID.TID 0000.0001) %MON ke_mean                      =   1.5809149628936E+02
(PID.TID 0000.0001) %MON ke_vol                       =   5.0995454902520E+19
(PID.TID 0000.0001) %MON vort_r_min                   =  -1.8274610181038E-04
(PID.TID 0000.0001) %MON vort_r_max                   =   2.2499086036423E-04
(PID.TID 0000.0001) %MON vort_a_mean                  =  -2.9414386102983E-20
(PID.TID 0000.0001) %MON vort_a_sd                    =   8.8851361373429E-05
(PID.TID 0000.0001) %MON vort_p_mean                  =  -2.9414386102983E-20
(PID.TID 0000.0001) %MON vort_p_sd                    =   8.8851361373429E-05
(PID.TID 0000.0001) %MON surfExpan_theta_mean         =  -3.2965884793334E-03
(PID.TID 0000.0001) %MON surfExpan_salt_mean          =  -1.6670323702691E-03
(PID.TID 0000.0001) %MON surfExpan_Heat_mean          =  -3.3247941197404E-01
(PID.TID 0000.0001) %MON En_Budget_T2PE_mean          =   1.8633936195883E+00
(PID.TID 0000.0001) // =======================================================
(PID.TID 0000.0001) // End MONITOR dynamic field statistics
(PID.TID 0000.0001) // =======================================================
(PID.TID 0000.0001) // =======================================================
(PID.TID 0000.0001) // Begin MONITOR Land statistics
(PID.TID 0000.0001) // =======================================================
(PID.TID 0000.0001) %MON land_time_sec                =   6.6749185320000E+11
(PID.TID 0000.0001) %MON land_SnwH_ave_G              =   3.8257721296198E-03
(PID.TID 0000.0001) %MON land_SnwH_ave_S              =   0.0000000000000E+00
(PID.TID 0000.0001) %MON land_SnwH_ave_T              =   0.0000000000000E+00
(PID.TID 0000.0001) %MON land_SnwH_ave_N              =   7.1650356004634E-03
(PID.TID 0000.0001) %MON land_SnwH_max_S              =   0.0000000000000E+00
(PID.TID 0000.0001) %MON land_SnwH_max_T              =   0.0000000000000E+00
(PID.TID 0000.0001) %MON land_SnwH_max_N              =   7.3268888409399E-02
(PID.TID 0000.0001) %MON land_Tsrf_ave_G              =   1.4795843400629E+01
(PID.TID 0000.0001) %MON land_Tsrf_ave_S              =   3.6261038784395E+01
(PID.TID 0000.0001) %MON land_Tsrf_ave_T              =   2.8221139427301E+01
(PID.TID 0000.0001) %MON land_Tsrf_ave_N              =   1.7531989557711E+00
(PID.TID 0000.0001) %MON land_Tsrf_min_S              =   3.1405170556790E+01
(PID.TID 0000.0001) %MON land_Tsrf_min_T              =   2.6023126701090E+01
(PID.TID 0000.0001) %MON land_Tsrf_min_N              =  -1.9949097015196E+01
(PID.TID 0000.0001) %MON land_Tsrf_max_S              =   4.1052319329436E+01
(PID.TID 0000.0001) %MON land_Tsrf_max_T              =   3.1459243806757E+01
(PID.TID 0000.0001) %MON land_Tsrf_max_N              =   2.8583407502255E+01
(PID.TID 0000.0001) %MON land_Tgr1_ave_G              =   1.4820266983329E+01
(PID.TID 0000.0001) %MON land_Tgr1_ave_S              =   3.6261038784395E+01
(PID.TID 0000.0001) %MON land_Tgr1_ave_T              =   2.8221139427301E+01
(PID.TID 0000.0001) %MON land_Tgr1_ave_N              =   1.7989402685335E+00
(PID.TID 0000.0001) %MON land_Tgr1_min_S              =   3.1405170556790E+01
(PID.TID 0000.0001) %MON land_Tgr1_min_T              =   2.6023126701090E+01
(PID.TID 0000.0001) %MON land_Tgr1_min_N              =  -1.9922883846664E+01
(PID.TID 0000.0001) %MON land_Tgr1_max_S              =   4.1052319329436E+01
(PID.TID 0000.0001) %MON land_Tgr1_max_T              =   3.1459243806757E+01
(PID.TID 0000.0001) %MON land_Tgr1_max_N              =   2.8583407502255E+01
(PID.TID 0000.0001) %MON land_Tgr2_ave_G              =   1.8544928807242E+01
(PID.TID 0000.0001) %MON land_Tgr2_ave_S              =   2.5509487507445E+01
(PID.TID 0000.0001) %MON land_Tgr2_ave_T              =   2.8640198633100E+01
(PID.TID 0000.0001) %MON land_Tgr2_ave_N              =   1.0249227111035E+01
(PID.TID 0000.0001) %MON land_Tgr2_min_S              =   2.1477407266393E+01
(PID.TID 0000.0001) %MON land_Tgr2_min_T              =   2.7869839398786E+01
(PID.TID 0000.0001) %MON land_Tgr2_min_N              =  -3.5000741627049E+00
(PID.TID 0000.0001) %MON land_Tgr2_max_S              =   2.8429358013160E+01
(PID.TID 0000.0001) %MON land_Tgr2_max_T              =   3.0668217949696E+01
(PID.TID 0000.0001) %MON land_Tgr2_max_N              =   3.1150732097740E+01
(PID.TID 0000.0001) %MON land_TotEnerg_G              =   1.0748111536084E+21
(PID.TID 0000.0001) %MON land_TotEnerg_S              =   1.3497205483779E+20
(PID.TID 0000.0001) %MON land_TotEnerg_T              =   9.7291308123083E+20
(PID.TID 0000.0001) %MON land_TotEnerg_N              =  -3.3073982460219E+19
(PID.TID 0000.0001) %MON land_grdW_ave_G              =   7.0720250797900E-01
(PID.TID 0000.0001) %MON land_grdW_ave_S              =   1.2696654227863E-01
(PID.TID 0000.0001) %MON land_grdW_ave_T              =   7.6790567508791E-01
(PID.TID 0000.0001) %MON land_grdW_ave_N              =   7.5981488666471E-01
(PID.TID 0000.0001) %MON land_grdW_min_S              =   1.5185281313280E-02
(PID.TID 0000.0001) %MON land_grdW_min_T              =   1.3171843999815E-01
(PID.TID 0000.0001) %MON land_grdW_min_N              =   4.4664912430068E-02
(PID.TID 0000.0001) // =======================================================
(PID.TID 0000.0001) // End MONITOR Land statistics
(PID.TID 0000.0001) // =======================================================
(PID.TID 0000.0001) // =======================================================
(PID.TID 0000.0001) // Begin MONITOR Therm.SeaIce statistics
(PID.TID 0000.0001) // =======================================================
(PID.TID 0000.0001) %MON thSI_time_sec                =   6.6749185320000E+11
(PID.TID 0000.0001) %MON thSI_Ice_Area_G              =   4.9765703149925E+13
(PID.TID 0000.0001) %MON thSI_Ice_Area_S              =   4.9765703149925E+13
(PID.TID 0000.0001) %MON thSI_Ice_Area_N              =   0.0000000000000E+00
(PID.TID 0000.0001) %MON thSI_IceH_ave_G              =   9.9194988718932E+00
(PID.TID 0000.0001) %MON thSI_IceH_ave_S              =   9.9194988718932E+00
(PID.TID 0000.0001) %MON thSI_IceH_ave_N              =   0.0000000000000E+00
(PID.TID 0000.0001) %MON thSI_IceH_max_S              =   2.2476317341486E+01
(PID.TID 0000.0001) %MON thSI_IceH_max_N              =   0.0000000000000E+00
(PID.TID 0000.0001) %MON thSI_SnwH_ave_G              =   4.8553818516402E-02
(PID.TID 0000.0001) %MON thSI_SnwH_ave_S              =   4.8553818516402E-02
(PID.TID 0000.0001) %MON thSI_SnwH_ave_N              =   0.0000000000000E+00
(PID.TID 0000.0001) %MON thSI_SnwH_max_S              =   3.2090371320160E-01
(PID.TID 0000.0001) %MON thSI_SnwH_max_N              =   0.0000000000000E+00
(PID.TID 0000.0001) %MON thSI_Tsrf_ave_G              =  -8.5694291554696E-01
(PID.TID 0000.0001) %MON thSI_Tsrf_ave_S              =  -8.5694291554696E-01
(PID.TID 0000.0001) %MON thSI_Tsrf_ave_N              =   0.0000000000000E+00
(PID.TID 0000.0001) %MON thSI_Tsrf_min_S              =  -8.7986820117246E+00
(PID.TID 0000.0001) %MON thSI_Tsrf_min_N              =   0.0000000000000E+00
(PID.TID 0000.0001) %MON thSI_Tsrf_max_S              =   0.0000000000000E+00
(PID.TID 0000.0001) %MON thSI_Tsrf_max_N              =   0.0000000000000E+00
(PID.TID 0000.0001) %MON thSI_Tic1_ave_G              =  -1.4098755593426E+01
(PID.TID 0000.0001) %MON thSI_Tic1_ave_S              =  -1.4098755593426E+01
(PID.TID 0000.0001) %MON thSI_Tic1_ave_N              =   0.0000000000000E+00
(PID.TID 0000.0001) %MON thSI_Tic1_min_S              =  -1.9923411630488E+01
(PID.TID 0000.0001) %MON thSI_Tic1_min_N              =   0.0000000000000E+00
(PID.TID 0000.0001) %MON thSI_Tic1_max_S              =  -1.4637395681336E-01
(PID.TID 0000.0001) %MON thSI_Tic1_max_N              =   0.0000000000000E+00
(PID.TID 0000.0001) %MON thSI_Tic2_ave_G              =  -6.1608824276608E+00
(PID.TID 0000.0001) %MON thSI_Tic2_ave_S              =  -6.1608824276608E+00
(PID.TID 0000.0001) %MON thSI_Tic2_ave_N              =   0.0000000000000E+00
(PID.TID 0000.0001) %MON thSI_Tic2_min_S              =  -7.6251501919738E+00
(PID.TID 0000.0001) %MON thSI_Tic2_min_N              =   0.0000000000000E+00
(PID.TID 0000.0001) %MON thSI_Tic2_max_S              =  -9.6416413661554E-03
(PID.TID 0000.0001) %MON thSI_Tic2_max_N              =   0.0000000000000E+00
(PID.TID 0000.0001) %MON thSI_TotEnerg_G              =  -1.5753266060755E+23
(PID.TID 0000.0001) // =======================================================
(PID.TID 0000.0001) // End MONITOR Therm.SeaIce statistics
(PID.TID 0000.0001) // =======================================================
 cg2d: Sum(rhs),rhsMax =  -2.18644854612648E-05  5.32416475829248E+03
(PID.TID 0000.0001)      cg2d_init_res =   9.39086345201771E+02
(PID.TID 0000.0001)      cg2d_iters(min,last) =      -1      23
(PID.TID 0000.0001)      cg2d_last_res =   3.95487250284452E-11
 cg3d: Sum(rhs),rhsMax =   6.63171774439864E-14  5.54514237627977E+00
(PID.TID 0000.0001)      cg3d_init_res =   6.91316258935480E-01
(PID.TID 0000.0001)      cg3d_iters (last) =                 10
(PID.TID 0000.0001)      cg3d_last_res =   8.69500884517133E-05
(PID.TID 0000.0001) // =======================================================
(PID.TID 0000.0001) // Begin MONITOR dynamic field statistics
(PID.TID 0000.0001) // =======================================================
(PID.TID 0000.0001) %MON time_tsnumber                =             556243212
(PID.TID 0000.0001) %MON time_secondsf                =   6.6749185440000E+11
(PID.TID 0000.0001) %MON dynstat_eta_max              =   2.2365831272361E+03
(PID.TID 0000.0001) %MON dynstat_eta_min              =  -4.3771201095606E+03
(PID.TID 0000.0001) %MON dynstat_eta_mean             =   6.2208974185329E-09
(PID.TID 0000.0001) %MON dynstat_eta_sd               =   9.7888428140413E+02
(PID.TID 0000.0001) %MON dynstat_eta_del2             =   4.3546389470672E+00
(PID.TID 0000.0001) %MON dynstat_uvel_max             =   7.4208174206982E+01
(PID.TID 0000.0001) %MON dynstat_uvel_min             =  -6.0374054182238E+01
(PID.TID 0000.0001) %MON dynstat_uvel_mean            =   1.8369890191389E+00
(PID.TID 0000.0001) %MON dynstat_uvel_sd              =   1.2406597934639E+01
(PID.TID 0000.0001) %MON dynstat_uvel_del2            =   4.7787456660140E-02
(PID.TID 0000.0001) %MON dynstat_vvel_max             =   1.0345840767904E+02
(PID.TID 0000.0001) %MON dynstat_vvel_min             =  -5.3504286676365E+01
(PID.TID 0000.0001) %MON dynstat_vvel_mean            =   1.7908841601153E+00
(PID.TID 0000.0001) %MON dynstat_vvel_sd              =   1.2483876248121E+01
(PID.TID 0000.0001) %MON dynstat_vvel_del2            =   4.7770588076322E-02
(PID.TID 0000.0001) %MON dynstat_wvel_max             =   1.1095692896637E+00
(PID.TID 0000.0001) %MON dynstat_wvel_min             =  -2.6909791500625E+00
(PID.TID 0000.0001) %MON dynstat_wvel_mean            =   3.3919292082719E-19
(PID.TID 0000.0001) %MON dynstat_wvel_sd              =   9.3448768574345E-02
(PID.TID 0000.0001) %MON dynstat_wvel_del2            =   1.5054307202473E-03
(PID.TID 0000.0001) %MON dynstat_theta_max            =   5.0212399297846E+02
(PID.TID 0000.0001) %MON dynstat_theta_min            =   2.6610731665071E+02
(PID.TID 0000.0001) %MON dynstat_theta_mean           =   3.3729439164416E+02
(PID.TID 0000.0001) %MON dynstat_theta_sd             =   4.8954773294198E+01
(PID.TID 0000.0001) %MON dynstat_theta_del2           =   2.6927650308664E-02
(PID.TID 0000.0001) %MON dynstat_salt_max             =   1.7849385204555E+01
(PID.TID 0000.0001) %MON dynstat_salt_min             =  -1.9986204677429E+00
(PID.TID 0000.0001) %MON dynstat_salt_mean            =   3.2326684056065E+00
(PID.TID 0000.0001) %MON dynstat_salt_sd              =   3.9636449321404E+00
(PID.TID 0000.0001) %MON dynstat_salt_del2            =   1.1997231841088E-02
(PID.TID 0000.0001) %MON trAdv_CFL_u_max              =   5.8605887342399E-01
(PID.TID 0000.0001) %MON trAdv_CFL_v_max              =   3.7572323621237E-01
(PID.TID 0000.0001) %MON trAdv_CFL_w_max              =   1.2466536030911E-01
(PID.TID 0000.0001) %MON advcfl_uvel_max              =   4.9670968150508E-01
(PID.TID 0000.0001) %MON advcfl_vvel_max              =   4.0237902863426E-01
(PID.TID 0000.0001) %MON advcfl_wvel_max              =   1.2916699920300E-01
(PID.TID 0000.0001) %MON advcfl_W_hf_max              =   1.6145874900375E-01
(PID.TID 0000.0001) %MON am_eta_mean                  =   2.4452070233827E+10
(PID.TID 0000.0001) %MON am_uZo_mean                  =   3.1471282722821E+11
(PID.TID 0000.0001) %MON am_tot_mean                  =   3.3916489746203E+11
(PID.TID 0000.0001) %MON pe_b_mean                    =   3.9801270911253E+00
(PID.TID 0000.0001) %MON ke_max                       =   5.3016829727388E+03
(PID.TID 0000.0001) %MON ke_mean                      =   1.5810695613303E+02
(PID.TID 0000.0001) %MON ke_vol                       =   5.0995454902520E+19
(PID.TID 0000.0001) %MON vort_r_min                   =  -1.8811990486221E-04
(PID.TID 0000.0001) %MON vort_r_max                   =   1.8092310008838E-04
(PID.TID 0000.0001) %MON vort_a_mean                  =  -2.4511988419153E-20
(PID.TID 0000.0001) %MON vort_a_sd                    =   8.8853087074109E-05
(PID.TID 0000.0001) %MON vort_p_mean                  =  -2.4511988419153E-20
(PID.TID 0000.0001) %MON vort_p_sd                    =   8.8853087074109E-05
(PID.TID 0000.0001) %MON surfExpan_theta_mean         =  -3.2441193894202E-03
(PID.TID 0000.0001) %MON surfExpan_salt_mean          =  -1.6448467255059E-03
(PID.TID 0000.0001) %MON surfExpan_Heat_mean          =  -3.2718761038264E-01
(PID.TID 0000.0001) %MON En_Budget_T2PE_mean          =   1.8622593004632E+00
(PID.TID 0000.0001) // =======================================================
(PID.TID 0000.0001) // End MONITOR dynamic field statistics
(PID.TID 0000.0001) // =======================================================
(PID.TID 0000.0001) // =======================================================
(PID.TID 0000.0001) // Begin MONITOR Land statistics
(PID.TID 0000.0001) // =======================================================
(PID.TID 0000.0001) %MON land_time_sec                =   6.6749185440000E+11
(PID.TID 0000.0001) %MON land_SnwH_ave_G              =   3.8282848946940E-03
(PID.TID 0000.0001) %MON land_SnwH_ave_S              =   0.0000000000000E+00
(PID.TID 0000.0001) %MON land_SnwH_ave_T              =   0.0000000000000E+00
(PID.TID 0000.0001) %MON land_SnwH_ave_N              =   7.1697415919867E-03
(PID.TID 0000.0001) %MON land_SnwH_max_S              =   0.0000000000000E+00
(PID.TID 0000.0001) %MON land_SnwH_max_T              =   0.0000000000000E+00
(PID.TID 0000.0001) %MON land_SnwH_max_N              =   7.3268889659368E-02
(PID.TID 0000.0001) %MON land_Tsrf_ave_G              =   1.4801628613005E+01
(PID.TID 0000.0001) %MON land_Tsrf_ave_S              =   3.6296916044612E+01
(PID.TID 0000.0001) %MON land_Tsrf_ave_T              =   2.8228102146631E+01
(PID.TID 0000.0001) %MON land_Tsrf_ave_N              =   1.7531926647892E+00
(PID.TID 0000.0001) %MON land_Tsrf_min_S              =   3.1412518615694E+01
(PID.TID 0000.0001) %MON land_Tsrf_min_T              =   2.6033000142195E+01
(PID.TID 0000.0001) %MON land_Tsrf_min_N              =  -1.9946001620468E+01
(PID.TID 0000.0001) %MON land_Tsrf_max_S              =   4.1112744915074E+01
(PID.TID 0000.0001) %MON land_Tsrf_max_T              =   3.1535945585138E+01
(PID.TID 0000.0001) %MON land_Tsrf_max_N              =   2.8528487441972E+01
(PID.TID 0000.0001) %MON land_Tgr1_ave_G              =   1.4826044787194E+01
(PID.TID 0000.0001) %MON land_Tgr1_ave_S              =   3.6296916044612E+01
(PID.TID 0000.0001) %MON land_Tgr1_ave_T              =   2.8228102146631E+01
(PID.TID 0000.0001) %MON land_Tgr1_ave_N              =   1.7989201026422E+00
(PID.TID 0000.0001) %MON land_Tgr1_min_S              =   3.1412518615694E+01
(PID.TID 0000.0001) %MON land_Tgr1_min_T              =   2.6033000142195E+01
(PID.TID 0000.0001) %MON land_Tgr1_min_N              =  -1.9919810161953E+01
(PID.TID 0000.0001) %MON land_Tgr1_max_S              =   4.1112744915074E+01
(PID.TID 0000.0001) %MON land_Tgr1_max_T              =   3.1535945585138E+01
(PID.TID 0000.0001) %MON land_Tgr1_max_N              =   2.8528487441972E+01
(PID.TID 0000.0001) %MON land_Tgr2_ave_G              =   1.8544846607360E+01
(PID.TID 0000.0001) %MON land_Tgr2_ave_S              =   2.5510049724290E+01
(PID.TID 0000.0001) %MON land_Tgr2_ave_T              =   2.8640182613257E+01
(PID.TID 0000.0001) %MON land_Tgr2_ave_N              =   1.0248991881184E+01
(PID.TID 0000.0001) %MON land_Tgr2_min_S              =   2.1478097140611E+01
(PID.TID 0000.0001) %MON land_Tgr2_min_T              =   2.7869848404236E+01
(PID.TID 0000.0001) %MON land_Tgr2_min_N              =  -3.5004769850966E+00
(PID.TID 0000.0001) %MON land_Tgr2_max_S              =   2.8429795133064E+01
(PID.TID 0000.0001) %MON land_Tgr2_max_T              =   3.0668132674289E+01
(PID.TID 0000.0001) %MON land_Tgr2_max_N              =   3.1150607996909E+01
(PID.TID 0000.0001) %MON land_TotEnerg_G              =   1.0748020724185E+21
(PID.TID 0000.0001) %MON land_TotEnerg_S              =   1.3497947660389E+20
(PID.TID 0000.0001) %MON land_TotEnerg_T              =   9.7291170052186E+20
(PID.TID 0000.0001) %MON land_TotEnerg_N              =  -3.3089104707299E+19
(PID.TID 0000.0001) %MON land_grdW_ave_G              =   7.0719684000980E-01
(PID.TID 0000.0001) %MON land_grdW_ave_S              =   1.2696798552544E-01
(PID.TID 0000.0001) %MON land_grdW_ave_T              =   7.6789318197430E-01
(PID.TID 0000.0001) %MON land_grdW_ave_N              =   7.5981287986605E-01
(PID.TID 0000.0001) %MON land_grdW_min_S              =   1.5115585031261E-02
(PID.TID 0000.0001) %MON land_grdW_min_T              =   1.3178761499866E-01
(PID.TID 0000.0001) %MON land_grdW_min_N              =   4.4609174102099E-02
(PID.TID 0000.0001) // =======================================================
(PID.TID 0000.0001) // End MONITOR Land statistics
(PID.TID 0000.0001) // =======================================================
(PID.TID 0000.0001) // =======================================================
(PID.TID 0000.0001) // Begin MONITOR Therm.SeaIce statistics
(PID.TID 0000.0001) // =======================================================
(PID.TID 0000.0001) %MON thSI_time_sec                =   6.6749185440000E+11
(PID.TID 0000.0001) %MON thSI_Ice_Area_G              =   4.9764128784600E+13
(PID.TID 0000.0001) %MON thSI_Ice_Area_S              =   4.9764128784600E+13
(PID.TID 0000.0001) %MON thSI_Ice_Area_N              =   0.0000000000000E+00
(PID.TID 0000.0001) %MON thSI_IceH_ave_G              =   9.9197304640091E+00
(PID.TID 0000.0001) %MON thSI_IceH_ave_S              =   9.9197304640091E+00
(PID.TID 0000.0001) %MON thSI_IceH_ave_N              =   0.0000000000000E+00
(PID.TID 0000.0001) %MON thSI_IceH_max_S              =   2.2476322810504E+01
(PID.TID 0000.0001) %MON thSI_IceH_max_N              =   0.0000000000000E+00
(PID.TID 0000.0001) %MON thSI_SnwH_ave_G              =   4.8475812961241E-02
(PID.TID 0000.0001) %MON thSI_SnwH_ave_S              =   4.8475812961241E-02
(PID.TID 0000.0001) %MON thSI_SnwH_ave_N              =   0.0000000000000E+00
(PID.TID 0000.0001) %MON thSI_SnwH_max_S              =   3.2069810507264E-01
(PID.TID 0000.0001) %MON thSI_SnwH_max_N              =   0.0000000000000E+00
(PID.TID 0000.0001) %MON thSI_Tsrf_ave_G              =  -8.5790283576307E-01
(PID.TID 0000.0001) %MON thSI_Tsrf_ave_S              =  -8.5790283576307E-01
(PID.TID 0000.0001) %MON thSI_Tsrf_ave_N              =   0.0000000000000E+00
(PID.TID 0000.0001) %MON thSI_Tsrf_min_S              =  -8.8000361765266E+00
(PID.TID 0000.0001) %MON thSI_Tsrf_min_N              =   0.0000000000000E+00
(PID.TID 0000.0001) %MON thSI_Tsrf_max_S              =   0.0000000000000E+00
(PID.TID 0000.0001) %MON thSI_Tsrf_max_N              =   0.0000000000000E+00
(PID.TID 0000.0001) %MON thSI_Tic1_ave_G              =  -1.4098041760407E+01
(PID.TID 0000.0001) %MON thSI_Tic1_ave_S              =  -1.4098041760407E+01
(PID.TID 0000.0001) %MON thSI_Tic1_ave_N              =   0.0000000000000E+00
(PID.TID 0000.0001) %MON thSI_Tic1_min_S              =  -1.9922964380704E+01
(PID.TID 0000.0001) %MON thSI_Tic1_min_N              =   0.0000000000000E+00
(PID.TID 0000.0001) %MON thSI_Tic1_max_S              =  -1.4684049841825E-01
(PID.TID 0000.0001) %MON thSI_Tic1_max_N              =   0.0000000000000E+00
(PID.TID 0000.0001) %MON thSI_Tic2_ave_G              =  -6.1608304952850E+00
(PID.TID 0000.0001) %MON thSI_Tic2_ave_S              =  -6.1608304952850E+00
(PID.TID 0000.0001) %MON thSI_Tic2_ave_N              =   0.0000000000000E+00
(PID.TID 0000.0001) %MON thSI_Tic2_min_S              =  -7.6251522847471E+00
(PID.TID 0000.0001) %MON thSI_Tic2_min_N              =   0.0000000000000E+00
(PID.TID 0000.0001) %MON thSI_Tic2_max_S              =  -1.7089132405494E-02
(PID.TID 0000.0001) %MON thSI_Tic2_max_N              =   0.0000000000000E+00
(PID.TID 0000.0001) %MON thSI_TotEnerg_G              =  -1.5753042050361E+23
(PID.TID 0000.0001) // =======================================================
(PID.TID 0000.0001) // End MONITOR Therm.SeaIce statistics
(PID.TID 0000.0001) // =======================================================
(PID.TID 0000.0001)   Exporting atmospheric surf fluxes at iter= 556243212
(PID.TID 0000.0001)   Importing  oceanic surface fields at iter= 556243212
 cg2d: Sum(rhs),rhsMax =  -2.18647182919085E-05  5.30242345137010E+03
(PID.TID 0000.0001)      cg2d_init_res =   9.43626870071414E+02
(PID.TID 0000.0001)      cg2d_iters(min,last) =      -1      23
(PID.TID 0000.0001)      cg2d_last_res =   3.96933663514759E-11
 cg3d: Sum(rhs),rhsMax =   1.35828848168984E-13  5.53287056803438E+00
(PID.TID 0000.0001)      cg3d_init_res =   7.31185636660639E-01
(PID.TID 0000.0001)      cg3d_iters (last) =                 11
(PID.TID 0000.0001)      cg3d_last_res =   6.06027324552600E-05
(PID.TID 0000.0001) // =======================================================
(PID.TID 0000.0001) // Begin MONITOR dynamic field statistics
(PID.TID 0000.0001) // =======================================================
(PID.TID 0000.0001) %MON time_tsnumber                =             556243213
(PID.TID 0000.0001) %MON time_secondsf                =   6.6749185560000E+11
(PID.TID 0000.0001) %MON dynstat_eta_max              =   2.2361086059623E+03
(PID.TID 0000.0001) %MON dynstat_eta_min              =  -4.3834713685475E+03
(PID.TID 0000.0001) %MON dynstat_eta_mean             =   6.2208331618260E-09
(PID.TID 0000.0001) %MON dynstat_eta_sd               =   9.7894369353966E+02
(PID.TID 0000.0001) %MON dynstat_eta_del2             =   4.3568450880000E+00
(PID.TID 0000.0001) %MON dynstat_uvel_max             =   7.4890161745460E+01
(PID.TID 0000.0001) %MON dynstat_uvel_min             =  -6.0228993887108E+01
(PID.TID 0000.0001) %MON dynstat_uvel_mean            =   1.8374179827969E+00
(PID.TID 0000.0001) %MON dynstat_uvel_sd              =   1.2405470643106E+01
(PID.TID 0000.0001) %MON dynstat_uvel_del2            =   4.7849332845494E-02
(PID.TID 0000.0001) %MON dynstat_vvel_max             =   1.0355157560815E+02
(PID.TID 0000.0001) %MON dynstat_vvel_min             =  -5.3321627631833E+01
(PID.TID 0000.0001) %MON dynstat_vvel_mean            =   1.7909643351953E+00
(PID.TID 0000.0001) %MON dynstat_vvel_sd              =   1.2486123910275E+01
(PID.TID 0000.0001) %MON dynstat_vvel_del2            =   4.7714712076723E-02
(PID.TID 0000.0001) %MON dynstat_wvel_max             =   1.3599093271954E+00
(PID.TID 0000.0001) %MON dynstat_wvel_min             =  -3.0629445559237E+00
(PID.TID 0000.0001) %MON dynstat_wvel_mean            =   3.1375345176515E-18
(PID.TID 0000.0001) %MON dynstat_wvel_sd              =   9.3622500946139E-02
(PID.TID 0000.0001) %MON dynstat_wvel_del2            =   1.5282535829389E-03
(PID.TID 0000.0001) %MON dynstat_theta_max            =   5.0213792089920E+02
(PID.TID 0000.0001) %MON dynstat_theta_min            =   2.6609134045960E+02
(PID.TID 0000.0001) %MON dynstat_theta_mean           =   3.3729406709760E+02
(PID.TID 0000.0001) %MON dynstat_theta_sd             =   4.8955033426637E+01
(PID.TID 0000.0001) %MON dynstat_theta_del2           =   2.6939760632575E-02
(PID.TID 0000.0001) %MON dynstat_salt_max             =   1.7841745680608E+01
(PID.TID 0000.0001) %MON dynstat_salt_min             =  -2.0606910757347E+00
(PID.TID 0000.0001) %MON dynstat_salt_mean            =   3.2325522435941E+00
(PID.TID 0000.0001) %MON dynstat_salt_sd              =   3.9635220839458E+00
(PID.TID 0000.0001) %MON dynstat_salt_del2            =   1.1993960550226E-02
(PID.TID 0000.0001) %MON trAdv_CFL_u_max              =   5.9390813117455E-01
(PID.TID 0000.0001) %MON trAdv_CFL_v_max              =   3.6723364102862E-01
(PID.TID 0000.0001) %MON trAdv_CFL_w_max              =   1.5127575467642E-01
(PID.TID 0000.0001) %MON advcfl_uvel_max              =   4.8657653428835E-01
(PID.TID 0000.0001) %MON advcfl_vvel_max              =   4.0556729311791E-01
(PID.TID 0000.0001) %MON advcfl_wvel_max              =   1.4702133868434E-01
(PID.TID 0000.0001) %MON advcfl_W_hf_max              =   1.8377667335542E-01
(PID.TID 0000.0001) %MON am_eta_mean                  =   2.4462043157983E+10
(PID.TID 0000.0001) %MON am_uZo_mean                  =   3.1471248897005E+11
(PID.TID 0000.0001) %MON am_tot_mean                  =   3.3917453212803E+11
(PID.TID 0000.0001) %MON pe_b_mean                    =   3.9806102432828E+00
(PID.TID 0000.0001) %MON ke_max                       =   5.3269022968858E+03
(PID.TID 0000.0001) %MON ke_mean                      =   1.5812206054120E+02
(PID.TID 0000.0001) %MON ke_vol                       =   5.0995454902520E+19
(PID.TID 0000.0001) %MON vort_r_min                   =  -2.2924007885192E-04
(PID.TID 0000.0001) %MON vort_r_max                   =   1.8569543017360E-04
(PID.TID 0000.0001) %MON vort_a_mean                  =   6.1279971047881E-20
(PID.TID 0000.0001) %MON vort_a_sd                    =   8.8855335905317E-05
(PID.TID 0000.0001) %MON vort_p_mean                  =   6.1279971047881E-20
(PID.TID 0000.0001) %MON vort_p_sd                    =   8.8855335905317E-05
(PID.TID 0000.0001) %MON surfExpan_theta_mean         =  -3.2014765459630E-03
(PID.TID 0000.0001) %MON surfExpan_salt_mean          =  -1.6232397586712E-03
(PID.TID 0000.0001) %MON surfExpan_Heat_mean          =  -3.2288684078207E-01
(PID.TID 0000.0001) %MON En_Budget_T2PE_mean          =   1.8609488117434E+00
(PID.TID 0000.0001) // =======================================================
(PID.TID 0000.0001) // End MONITOR dynamic field statistics
(PID.TID 0000.0001) // =======================================================
(PID.TID 0000.0001) // =======================================================
(PID.TID 0000.0001) // Begin MONITOR Land statistics
(PID.TID 0000.0001) // =======================================================
(PID.TID 0000.0001) %MON land_time_sec                =   6.6749185560000E+11
(PID.TID 0000.0001) %MON land_SnwH_ave_G              =   3.8307921202378E-03
(PID.TID 0000.0001) %MON land_SnwH_ave_S              =   0.0000000000000E+00
(PID.TID 0000.0001) %MON land_SnwH_ave_T              =   0.0000000000000E+00
(PID.TID 0000.0001) %MON land_SnwH_ave_N              =   7.1744372088899E-03
(PID.TID 0000.0001) %MON land_SnwH_max_S              =   0.0000000000000E+00
(PID.TID 0000.0001) %MON land_SnwH_max_T              =   0.0000000000000E+00
(PID.TID 0000.0001) %MON land_SnwH_max_N              =   7.3268855349484E-02
(PID.TID 0000.0001) %MON land_Tsrf_ave_G              =   1.4808248341757E+01
(PID.TID 0000.0001) %MON land_Tsrf_ave_S              =   3.6333602090842E+01
(PID.TID 0000.0001) %MON land_Tsrf_ave_T              =   2.8235224650395E+01
(PID.TID 0000.0001) %MON land_Tsrf_ave_N              =   1.7545028946066E+00
(PID.TID 0000.0001) %MON land_Tsrf_min_S              =   3.1418318225501E+01
(PID.TID 0000.0001) %MON land_Tsrf_min_T              =   2.6043931738794E+01
(PID.TID 0000.0001) %MON land_Tsrf_min_N              =  -1.9942927012122E+01
(PID.TID 0000.0001) %MON land_Tsrf_max_S              =   4.1170111756132E+01
(PID.TID 0000.0001) %MON land_Tsrf_max_T              =   3.1608977956063E+01
(PID.TID 0000.0001) %MON land_Tsrf_max_N              =   2.8473274943183E+01
(PID.TID 0000.0001) %MON land_Tgr1_ave_G              =   1.4832368420271E+01
(PID.TID 0000.0001) %MON land_Tgr1_ave_S              =   3.6333602090842E+01
(PID.TID 0000.0001) %MON land_Tgr1_ave_T              =   2.8235224650395E+01
(PID.TID 0000.0001) %MON land_Tgr1_ave_N              =   1.7996757944518E+00
(PID.TID 0000.0001) %MON land_Tgr1_min_S              =   3.1418318225501E+01
(PID.TID 0000.0001) %MON land_Tgr1_min_T              =   2.6043931738794E+01
(PID.TID 0000.0001) %MON land_Tgr1_min_N              =  -1.9916756178441E+01
(PID.TID 0000.0001) %MON land_Tgr1_max_S              =   4.1170111756132E+01
(PID.TID 0000.0001) %MON land_Tgr1_max_T              =   3.1608977956063E+01
(PID.TID 0000.0001) %MON land_Tgr1_max_N              =   2.8473274943183E+01
(PID.TID 0000.0001) %MON land_Tgr2_ave_G              =   1.8544764619957E+01
(PID.TID 0000.0001) %MON land_Tgr2_ave_S              =   2.5510613823439E+01
(PID.TID 0000.0001) %MON land_Tgr2_ave_T              =   2.8640166827958E+01
(PID.TID 0000.0001) %MON land_Tgr2_ave_N              =   1.0248756573080E+01
(PID.TID 0000.0001) %MON land_Tgr2_min_S              =   2.1478789259111E+01
(PID.TID 0000.0001) %MON land_Tgr2_min_T              =   2.7869857505484E+01
(PID.TID 0000.0001) %MON land_Tgr2_min_N              =  -3.5008802319302E+00
(PID.TID 0000.0001) %MON land_Tgr2_max_S              =   2.8430234189417E+01
(PID.TID 0000.0001) %MON land_Tgr2_max_T              =   3.0668046769683E+01
(PID.TID 0000.0001) %MON land_Tgr2_max_N              =   3.1150481309294E+01
(PID.TID 0000.0001) %MON land_TotEnerg_G              =   1.0747939391850E+21
(PID.TID 0000.0001) %MON land_TotEnerg_S              =   1.3498701764443E+20
(PID.TID 0000.0001) %MON land_TotEnerg_T              =   9.7291040351259E+20
(PID.TID 0000.0001) %MON land_TotEnerg_N              =  -3.3103481971996E+19
(PID.TID 0000.0001) %MON land_grdW_ave_G              =   7.0719121083424E-01
(PID.TID 0000.0001) %MON land_grdW_ave_S              =   1.2696964589163E-01
(PID.TID 0000.0001) %MON land_grdW_ave_T              =   7.6788055891710E-01
(PID.TID 0000.0001) %MON land_grdW_ave_N              =   7.5981100196123E-01
(PID.TID 0000.0001) %MON land_grdW_min_S              =   1.5046886521647E-02
(PID.TID 0000.0001) %MON land_grdW_min_T              =   1.3191357590113E-01
(PID.TID 0000.0001) %MON land_grdW_min_N              =   4.4554304886849E-02
(PID.TID 0000.0001) // =======================================================
(PID.TID 0000.0001) // End MONITOR Land statistics
(PID.TID 0000.0001) // =======================================================
(PID.TID 0000.0001) // =======================================================
(PID.TID 0000.0001) // Begin MONITOR Therm.SeaIce statistics
(PID.TID 0000.0001) // =======================================================
(PID.TID 0000.0001) %MON thSI_time_sec                =   6.6749185560000E+11
(PID.TID 0000.0001) %MON thSI_Ice_Area_G              =   4.9762575418466E+13
(PID.TID 0000.0001) %MON thSI_Ice_Area_S              =   4.9762575418466E+13
(PID.TID 0000.0001) %MON thSI_Ice_Area_N              =   0.0000000000000E+00
(PID.TID 0000.0001) %MON thSI_IceH_ave_G              =   9.9199582896588E+00
(PID.TID 0000.0001) %MON thSI_IceH_ave_S              =   9.9199582896588E+00
(PID.TID 0000.0001) %MON thSI_IceH_ave_N              =   0.0000000000000E+00
(PID.TID 0000.0001) %MON thSI_IceH_max_S              =   2.2476328276832E+01
(PID.TID 0000.0001) %MON thSI_IceH_max_N              =   0.0000000000000E+00
(PID.TID 0000.0001) %MON thSI_SnwH_ave_G              =   4.8397818787335E-02
(PID.TID 0000.0001) %MON thSI_SnwH_ave_S              =   4.8397818787335E-02
(PID.TID 0000.0001) %MON thSI_SnwH_ave_N              =   0.0000000000000E+00
(PID.TID 0000.0001) %MON thSI_SnwH_max_S              =   3.2049356220759E-01
(PID.TID 0000.0001) %MON thSI_SnwH_max_N              =   0.0000000000000E+00
(PID.TID 0000.0001) %MON thSI_Tsrf_ave_G              =  -8.5895086721262E-01
(PID.TID 0000.0001) %MON thSI_Tsrf_ave_S              =  -8.5895086721262E-01
(PID.TID 0000.0001) %MON thSI_Tsrf_ave_N              =   0.0000000000000E+00
(PID.TID 0000.0001) %MON thSI_Tsrf_min_S              =  -8.7988575280250E+00
(PID.TID 0000.0001) %MON thSI_Tsrf_min_N              =   0.0000000000000E+00
(PID.TID 0000.0001) %MON thSI_Tsrf_max_S              =   0.0000000000000E+00
(PID.TID 0000.0001) %MON thSI_Tsrf_max_N              =   0.0000000000000E+00
(PID.TID 0000.0001) %MON thSI_Tic1_ave_G              =  -1.4097327590588E+01
(PID.TID 0000.0001) %MON thSI_Tic1_ave_S              =  -1.4097327590588E+01
(PID.TID 0000.0001) %MON thSI_Tic1_ave_N              =   0.0000000000000E+00
(PID.TID 0000.0001) %MON thSI_Tic1_min_S              =  -1.9922517068565E+01
(PID.TID 0000.0001) %MON thSI_Tic1_min_N              =   0.0000000000000E+00
(PID.TID 0000.0001) %MON thSI_Tic1_max_S              =  -1.4731507452533E-01
(PID.TID 0000.0001) %MON thSI_Tic1_max_N              =   0.0000000000000E+00
(PID.TID 0000.0001) %MON thSI_Tic2_ave_G              =  -6.1607716896445E+00
(PID.TID 0000.0001) %MON thSI_Tic2_ave_S              =  -6.1607716896445E+00
(PID.TID 0000.0001) %MON thSI_Tic2_ave_N              =   0.0000000000000E+00
(PID.TID 0000.0001) %MON thSI_Tic2_min_S              =  -7.6251543724049E+00
(PID.TID 0000.0001) %MON thSI_Tic2_min_N              =   0.0000000000000E+00
(PID.TID 0000.0001) %MON thSI_Tic2_max_S              =  -1.2363231437590E-02
(PID.TID 0000.0001) %MON thSI_Tic2_max_N              =   0.0000000000000E+00
(PID.TID 0000.0001) %MON thSI_TotEnerg_G              =  -1.5752818671131E+23
(PID.TID 0000.0001) // =======================================================
(PID.TID 0000.0001) // End MONITOR Therm.SeaIce statistics
(PID.TID 0000.0001) // =======================================================
 Compute Stats, Diag. #    187  SI_Fract  vol(   0 ): 5.100E+14  Parms: SM P    M1      
 Compute Stats, Diag. #    188  SI_Thick  vol(   0 ): 4.976E+13  Parms: SM PC   M1      
    use Counter Mate  #    187  SI_Fract  vol(   0 ): 5.100E+14 integral 4.976E+13
 Compute Stats, Diag. #    273  aim_pCO2  vol(   0 ): 5.100E+14  Parms: SM P    L1      
 Compute Stats, Diag. #    279  CPL_fCO2  vol(   0 ): 5.100E+14  Parms: SM      M1      
 Compute Stats, Diag. #    275  CPL_MxlD  vol(   0 ): 5.100E+14  Parms: SM      M1      
 Compute Stats, Diag. #    276  CPL_SST   vol(   0 ): 5.100E+14  Parms: SM      M1      
 Compute Stats, Diag. #    277  CPL_SSS   vol(   0 ): 5.100E+14  Parms: SM      M1      
 Compute Stats, Diag. #    278  CPL_Vel2  vol(   0 ): 5.100E+14  Parms: SM      M1      
 cg2d: Sum(rhs),rhsMax =  -2.18652421608567E-05  5.28241788688126E+03
(PID.TID 0000.0001)      cg2d_init_res =   9.54860584012951E+02
(PID.TID 0000.0001)      cg2d_iters(min,last) =      -1      23
(PID.TID 0000.0001)      cg2d_last_res =   3.99598097182965E-11
 cg3d: Sum(rhs),rhsMax =  -3.87055838768635E-14  5.91565442259076E+00
(PID.TID 0000.0001)      cg3d_init_res =   6.89741007721817E-01
(PID.TID 0000.0001)      cg3d_iters (last) =                 11
(PID.TID 0000.0001)      cg3d_last_res =   5.92178955015413E-05
(PID.TID 0000.0001) // =======================================================
(PID.TID 0000.0001) // Begin MONITOR dynamic field statistics
(PID.TID 0000.0001) // =======================================================
(PID.TID 0000.0001) %MON time_tsnumber                =             556243214
(PID.TID 0000.0001) %MON time_secondsf                =   6.6749185680000E+11
(PID.TID 0000.0001) %MON dynstat_eta_max              =   2.2355753135608E+03
(PID.TID 0000.0001) %MON dynstat_eta_min              =  -4.3897989771327E+03
(PID.TID 0000.0001) %MON dynstat_eta_mean             =   6.2208717158501E-09
(PID.TID 0000.0001) %MON dynstat_eta_sd               =   9.7900389062502E+02
(PID.TID 0000.0001) %MON dynstat_eta_del2             =   4.3594190244160E+00
(PID.TID 0000.0001) %MON dynstat_uvel_max             =   7.5185151598024E+01
(PID.TID 0000.0001) %MON dynstat_uvel_min             =  -6.0060758576472E+01
(PID.TID 0000.0001) %MON dynstat_uvel_mean            =   1.8378276377082E+00
(PID.TID 0000.0001) %MON dynstat_uvel_sd              =   1.2404366977015E+01
(PID.TID 0000.0001) %MON dynstat_uvel_del2            =   4.7931506588125E-02
(PID.TID 0000.0001) %MON dynstat_vvel_max             =   1.0361139214212E+02
(PID.TID 0000.0001) %MON dynstat_vvel_min             =  -5.3133121831261E+01
(PID.TID 0000.0001) %MON dynstat_vvel_mean            =   1.7909766006632E+00
(PID.TID 0000.0001) %MON dynstat_vvel_sd              =   1.2488342710204E+01
(PID.TID 0000.0001) %MON dynstat_vvel_del2            =   4.7677433514973E-02
(PID.TID 0000.0001) %MON dynstat_wvel_max             =   1.6452990531136E+00
(PID.TID 0000.0001) %MON dynstat_wvel_min             =  -3.3533289657997E+00
(PID.TID 0000.0001) %MON dynstat_wvel_mean            =   1.1023769926884E-18
(PID.TID 0000.0001) %MON dynstat_wvel_sd              =   9.3820234140945E-02
(PID.TID 0000.0001) %MON dynstat_wvel_del2            =   1.5583973256993E-03
(PID.TID 0000.0001) %MON dynstat_theta_max            =   5.0215089756684E+02
(PID.TID 0000.0001) %MON dynstat_theta_min            =   2.6607543944348E+02
(PID.TID 0000.0001) %MON dynstat_theta_mean           =   3.3729369301511E+02
(PID.TID 0000.0001) %MON dynstat_theta_sd             =   4.8955303803521E+01
(PID.TID 0000.0001) %MON dynstat_theta_del2           =   2.6956307959644E-02
(PID.TID 0000.0001) %MON dynstat_salt_max             =   1.7834160275433E+01
(PID.TID 0000.0001) %MON dynstat_salt_min             =  -2.0952477394778E+00
(PID.TID 0000.0001) %MON dynstat_salt_mean            =   3.2324539981384E+00
(PID.TID 0000.0001) %MON dynstat_salt_sd              =   3.9634224265475E+00
(PID.TID 0000.0001) %MON dynstat_salt_del2            =   1.1991185420686E-02
(PID.TID 0000.0001) %MON trAdv_CFL_u_max              =   5.9936626228733E-01
(PID.TID 0000.0001) %MON trAdv_CFL_v_max              =   3.5974187534328E-01
(PID.TID 0000.0001) %MON trAdv_CFL_w_max              =   1.7691415532476E-01
(PID.TID 0000.0001) %MON advcfl_uvel_max              =   4.7862086783591E-01
(PID.TID 0000.0001) %MON advcfl_vvel_max              =   4.1037876191347E-01
(PID.TID 0000.0001) %MON advcfl_wvel_max              =   1.6095979035839E-01
(PID.TID 0000.0001) %MON advcfl_W_hf_max              =   2.0119973794798E-01
(PID.TID 0000.0001) %MON am_eta_mean                  =   2.4472064756856E+10
(PID.TID 0000.0001) %MON am_uZo_mean                  =   3.1471197233771E+11
(PID.TID 0000.0001) %MON am_tot_mean                  =   3.3918403709457E+11
(PID.TID 0000.0001) %MON pe_b_mean                    =   3.9810998087267E+00
(PID.TID 0000.0001) %MON ke_max                       =   5.3491816715515E+03
(PID.TID 0000.0001) %MON ke_mean                      =   1.5813687138047E+02
(PID.TID 0000.0001) %MON ke_vol                       =   5.0995454902520E+19
(PID.TID 0000.0001) %MON vort_r_min                   =  -2.9554151603014E-04
(PID.TID 0000.0001) %MON vort_r_max                   =   1.8878091965636E-04
(PID.TID 0000.0001) %MON vort_a_mean                  =  -9.8047953676610E-21
(PID.TID 0000.0001) %MON vort_a_sd                    =   8.8858224703896E-05
(PID.TID 0000.0001) %MON vort_p_mean                  =  -9.8047953676610E-21
(PID.TID 0000.0001) %MON vort_p_sd                    =   8.8858224703896E-05
(PID.TID 0000.0001) %MON surfExpan_theta_mean         =  -3.1942515426965E-03
(PID.TID 0000.0001) %MON surfExpan_salt_mean          =  -1.6174217760884E-03
(PID.TID 0000.0001) %MON surfExpan_Heat_mean          =  -3.2215815873619E-01
(PID.TID 0000.0001) %MON En_Budget_T2PE_mean          =   1.8604697248057E+00
(PID.TID 0000.0001) // =======================================================
(PID.TID 0000.0001) // End MONITOR dynamic field statistics
(PID.TID 0000.0001) // =======================================================
(PID.TID 0000.0001) // =======================================================
(PID.TID 0000.0001) // Begin MONITOR Land statistics
(PID.TID 0000.0001) // =======================================================
(PID.TID 0000.0001) %MON land_time_sec                =   6.6749185680000E+11
(PID.TID 0000.0001) %MON land_SnwH_ave_G              =   3.8332850526069E-03
(PID.TID 0000.0001) %MON land_SnwH_ave_S              =   0.0000000000000E+00
(PID.TID 0000.0001) %MON land_SnwH_ave_T              =   0.0000000000000E+00
(PID.TID 0000.0001) %MON land_SnwH_ave_N              =   7.1791060570515E-03
(PID.TID 0000.0001) %MON land_SnwH_max_S              =   0.0000000000000E+00
(PID.TID 0000.0001) %MON land_SnwH_max_T              =   0.0000000000000E+00
(PID.TID 0000.0001) %MON land_SnwH_max_N              =   7.3268838371652E-02
(PID.TID 0000.0001) %MON land_Tsrf_ave_G              =   1.4815228783412E+01
(PID.TID 0000.0001) %MON land_Tsrf_ave_S              =   3.6371577316632E+01
(PID.TID 0000.0001) %MON land_Tsrf_ave_T              =   2.8242495651889E+01
(PID.TID 0000.0001) %MON land_Tsrf_ave_N              =   1.7561711360283E+00
(PID.TID 0000.0001) %MON land_Tsrf_min_S              =   3.1422911193023E+01
(PID.TID 0000.0001) %MON land_Tsrf_min_T              =   2.6055917387256E+01
(PID.TID 0000.0001) %MON land_Tsrf_min_N              =  -1.9939874663198E+01
(PID.TID 0000.0001) %MON land_Tsrf_max_S              =   4.1226638484934E+01
(PID.TID 0000.0001) %MON land_Tsrf_max_T              =   3.1679535558343E+01
(PID.TID 0000.0001) %MON land_Tsrf_max_N              =   2.8417841096853E+01
(PID.TID 0000.0001) %MON land_Tgr1_ave_G              =   1.4839186562563E+01
(PID.TID 0000.0001) %MON land_Tgr1_ave_S              =   3.6371577316632E+01
(PID.TID 0000.0001) %MON land_Tgr1_ave_T              =   2.8242495651889E+01
(PID.TID 0000.0001) %MON land_Tgr1_ave_N              =   1.8010400761291E+00
(PID.TID 0000.0001) %MON land_Tgr1_min_S              =   3.1422911193023E+01
(PID.TID 0000.0001) %MON land_Tgr1_min_T              =   2.6055917387256E+01
(PID.TID 0000.0001) %MON land_Tgr1_min_N              =  -1.9913722994819E+01
(PID.TID 0000.0001) %MON land_Tgr1_max_S              =   4.1226638484934E+01
(PID.TID 0000.0001) %MON land_Tgr1_max_T              =   3.1679535558343E+01
(PID.TID 0000.0001) %MON land_Tgr1_max_N              =   2.8417841096853E+01
(PID.TID 0000.0001) %MON land_Tgr2_ave_G              =   1.8544682879363E+01
(PID.TID 0000.0001) %MON land_Tgr2_ave_S              =   2.5511179859883E+01
(PID.TID 0000.0001) %MON land_Tgr2_ave_T              =   2.8640151284606E+01
(PID.TID 0000.0001) %MON land_Tgr2_ave_N              =   1.0248521236717E+01
(PID.TID 0000.0001) %MON land_Tgr2_min_S              =   2.1479483623230E+01
(PID.TID 0000.0001) %MON land_Tgr2_min_T              =   2.7869866703971E+01
(PID.TID 0000.0001) %MON land_Tgr2_min_N              =  -3.5012839120498E+00
(PID.TID 0000.0001) %MON land_Tgr2_max_S              =   2.8430675148951E+01
(PID.TID 0000.0001) %MON land_Tgr2_max_T              =   3.0667960254627E+01
(PID.TID 0000.0001) %MON land_Tgr2_max_N              =   3.1150352024614E+01
(PID.TID 0000.0001) %MON land_TotEnerg_G              =   1.0747866706357E+21
(PID.TID 0000.0001) %MON land_TotEnerg_S              =   1.3499473877136E+20
(PID.TID 0000.0001) %MON land_TotEnerg_T              =   9.7290920086849E+20
(PID.TID 0000.0001) %MON land_TotEnerg_N              =  -3.3117269004176E+19
(PID.TID 0000.0001) %MON land_grdW_ave_G              =   7.0718564588672E-01
(PID.TID 0000.0001) %MON land_grdW_ave_S              =   1.2697153035496E-01
(PID.TID 0000.0001) %MON land_grdW_ave_T              =   7.6786787766383E-01
(PID.TID 0000.0001) %MON land_grdW_ave_N              =   7.5980924863190E-01
(PID.TID 0000.0001) %MON land_grdW_min_S              =   1.4979233715059E-02
(PID.TID 0000.0001) %MON land_grdW_min_T              =   1.3215967920736E-01
(PID.TID 0000.0001) %MON land_grdW_min_N              =   4.4500762657724E-02
(PID.TID 0000.0001) // =======================================================
(PID.TID 0000.0001) // End MONITOR Land statistics
(PID.TID 0000.0001) // =======================================================
(PID.TID 0000.0001) // =======================================================
(PID.TID 0000.0001) // Begin MONITOR Therm.SeaIce statistics
(PID.TID 0000.0001) // =======================================================
(PID.TID 0000.0001) %MON thSI_time_sec                =   6.6749185680000E+11
(PID.TID 0000.0001) %MON thSI_Ice_Area_G              =   4.9761025337720E+13
(PID.TID 0000.0001) %MON thSI_Ice_Area_S              =   4.9761025337720E+13
(PID.TID 0000.0001) %MON thSI_Ice_Area_N              =   0.0000000000000E+00
(PID.TID 0000.0001) %MON thSI_IceH_ave_G              =   9.9201855045542E+00
(PID.TID 0000.0001) %MON thSI_IceH_ave_S              =   9.9201855045542E+00
(PID.TID 0000.0001) %MON thSI_IceH_ave_N              =   0.0000000000000E+00
(PID.TID 0000.0001) %MON thSI_IceH_max_S              =   2.2476333743160E+01
(PID.TID 0000.0001) %MON thSI_IceH_max_N              =   0.0000000000000E+00
(PID.TID 0000.0001) %MON thSI_SnwH_ave_G              =   4.8319874783696E-02
(PID.TID 0000.0001) %MON thSI_SnwH_ave_S              =   4.8319874783696E-02
(PID.TID 0000.0001) %MON thSI_SnwH_ave_N              =   0.0000000000000E+00
(PID.TID 0000.0001) %MON thSI_SnwH_max_S              =   3.2028982107897E-01
(PID.TID 0000.0001) %MON thSI_SnwH_max_N              =   0.0000000000000E+00
(PID.TID 0000.0001) %MON thSI_Tsrf_ave_G              =  -8.5979671617412E-01
(PID.TID 0000.0001) %MON thSI_Tsrf_ave_S              =  -8.5979671617412E-01
(PID.TID 0000.0001) %MON thSI_Tsrf_ave_N              =   0.0000000000000E+00
(PID.TID 0000.0001) %MON thSI_Tsrf_min_S              =  -8.7998293406560E+00
(PID.TID 0000.0001) %MON thSI_Tsrf_min_N              =   0.0000000000000E+00
(PID.TID 0000.0001) %MON thSI_Tsrf_max_S              =   0.0000000000000E+00
(PID.TID 0000.0001) %MON thSI_Tsrf_max_N              =   0.0000000000000E+00
(PID.TID 0000.0001) %MON thSI_Tic1_ave_G              =  -1.4096613549347E+01
(PID.TID 0000.0001) %MON thSI_Tic1_ave_S              =  -1.4096613549347E+01
(PID.TID 0000.0001) %MON thSI_Tic1_ave_N              =   0.0000000000000E+00
(PID.TID 0000.0001) %MON thSI_Tic1_min_S              =  -1.9922069693788E+01
(PID.TID 0000.0001) %MON thSI_Tic1_min_N              =   0.0000000000000E+00
(PID.TID 0000.0001) %MON thSI_Tic1_max_S              =  -1.4779744558541E-01
(PID.TID 0000.0001) %MON thSI_Tic1_max_N              =   0.0000000000000E+00
(PID.TID 0000.0001) %MON thSI_Tic2_ave_G              =  -6.1607166287147E+00
(PID.TID 0000.0001) %MON thSI_Tic2_ave_S              =  -6.1607166287147E+00
(PID.TID 0000.0001) %MON thSI_Tic2_ave_N              =   0.0000000000000E+00
(PID.TID 0000.0001) %MON thSI_Tic2_min_S              =  -7.6251564555087E+00
(PID.TID 0000.0001) %MON thSI_Tic2_min_N              =   0.0000000000000E+00
(PID.TID 0000.0001) %MON thSI_Tic2_max_S              =  -7.6533614803477E-03
(PID.TID 0000.0001) %MON thSI_Tic2_max_N              =   0.0000000000000E+00
(PID.TID 0000.0001) %MON thSI_TotEnerg_G              =  -1.5752595381954E+23
(PID.TID 0000.0001) // =======================================================
(PID.TID 0000.0001) // End MONITOR Therm.SeaIce statistics
(PID.TID 0000.0001) // =======================================================
 cg2d: Sum(rhs),rhsMax =  -2.18655331991613E-05  5.26372811551272E+03
(PID.TID 0000.0001)      cg2d_init_res =   9.89586981211830E+02
(PID.TID 0000.0001)      cg2d_iters(min,last) =      -1      23
(PID.TID 0000.0001)      cg2d_last_res =   4.08642334513936E-11
 cg3d: Sum(rhs),rhsMax =   2.19190984807049E-13  6.54699868474002E+00
(PID.TID 0000.0001)      cg3d_init_res =   6.62137189776849E-01
(PID.TID 0000.0001)      cg3d_iters (last) =                 11
(PID.TID 0000.0001)      cg3d_last_res =   5.76544550380632E-05
(PID.TID 0000.0001) // =======================================================
(PID.TID 0000.0001) // Begin MONITOR dynamic field statistics
(PID.TID 0000.0001) // =======================================================
(PID.TID 0000.0001) %MON time_tsnumber                =             556243215
(PID.TID 0000.0001) %MON time_secondsf                =   6.6749185800000E+11
(PID.TID 0000.0001) %MON dynstat_eta_max              =   2.2349948250855E+03
(PID.TID 0000.0001) %MON dynstat_eta_min              =  -4.3959909098143E+03
(PID.TID 0000.0001) %MON dynstat_eta_mean             =   6.2207046484121E-09
(PID.TID 0000.0001) %MON dynstat_eta_sd               =   9.7906069790767E+02
(PID.TID 0000.0001) %MON dynstat_eta_del2             =   4.3623332258354E+00
(PID.TID 0000.0001) %MON dynstat_uvel_max             =   7.5032743705218E+01
(PID.TID 0000.0001) %MON dynstat_uvel_min             =  -5.9872161554924E+01
(PID.TID 0000.0001) %MON dynstat_uvel_mean            =   1.8382251389813E+00
(PID.TID 0000.0001) %MON dynstat_uvel_sd              =   1.2403305379975E+01
(PID.TID 0000.0001) %MON dynstat_uvel_del2            =   4.8036305861892E-02
(PID.TID 0000.0001) %MON dynstat_vvel_max             =   1.0375413403582E+02
(PID.TID 0000.0001) %MON dynstat_vvel_min             =  -5.2939449328725E+01
(PID.TID 0000.0001) %MON dynstat_vvel_mean            =   1.7909290872070E+00
(PID.TID 0000.0001) %MON dynstat_vvel_sd              =   1.2490518645836E+01
(PID.TID 0000.0001) %MON dynstat_vvel_del2            =   4.7659176102968E-02
(PID.TID 0000.0001) %MON dynstat_wvel_max             =   1.9210403948852E+00
(PID.TID 0000.0001) %MON dynstat_wvel_min             =  -3.5322824339910E+00
(PID.TID 0000.0001) %MON dynstat_wvel_mean            =   5.9358761144759E-19
(PID.TID 0000.0001) %MON dynstat_wvel_sd              =   9.4029411849884E-02
(PID.TID 0000.0001) %MON dynstat_wvel_del2            =   1.5925444773370E-03
(PID.TID 0000.0001) %MON dynstat_theta_max            =   5.0216295168710E+02
(PID.TID 0000.0001) %MON dynstat_theta_min            =   2.6605961757818E+02
(PID.TID 0000.0001) %MON dynstat_theta_mean           =   3.3729326758950E+02
(PID.TID 0000.0001) %MON dynstat_theta_sd             =   4.8955595187223E+01
(PID.TID 0000.0001) %MON dynstat_theta_del2           =   2.6973847763286E-02
(PID.TID 0000.0001) %MON dynstat_salt_max             =   1.7827204655748E+01
(PID.TID 0000.0001) %MON dynstat_salt_min             =  -2.1013453363142E+00
(PID.TID 0000.0001) %MON dynstat_salt_mean            =   3.2323750443539E+00
(PID.TID 0000.0001) %MON dynstat_salt_sd              =   3.9633298609651E+00
(PID.TID 0000.0001) %MON dynstat_salt_del2            =   1.1987985675646E-02
(PID.TID 0000.0001) %MON trAdv_CFL_u_max              =   6.0172714602991E-01
(PID.TID 0000.0001) %MON trAdv_CFL_v_max              =   3.5385999208848E-01
(PID.TID 0000.0001) %MON trAdv_CFL_w_max              =   1.9994512075653E-01
(PID.TID 0000.0001) %MON advcfl_uvel_max              =   4.7375860296129E-01
(PID.TID 0000.0001) %MON advcfl_vvel_max              =   4.1673724901419E-01
(PID.TID 0000.0001) %MON advcfl_wvel_max              =   1.6954955683157E-01
(PID.TID 0000.0001) %MON advcfl_W_hf_max              =   2.1193694603946E-01
(PID.TID 0000.0001) %MON am_eta_mean                  =   2.4482071037295E+10
(PID.TID 0000.0001) %MON am_uZo_mean                  =   3.1471130919333E+11
(PID.TID 0000.0001) %MON am_tot_mean                  =   3.3919338023063E+11
(PID.TID 0000.0001) %MON pe_b_mean                    =   3.9815618334964E+00
(PID.TID 0000.0001) %MON ke_max                       =   5.3681579276403E+03
(PID.TID 0000.0001) %MON ke_mean                      =   1.5815146033825E+02
(PID.TID 0000.0001) %MON ke_vol                       =   5.0995454902520E+19
(PID.TID 0000.0001) %MON vort_r_min                   =  -3.6177388112217E-04
(PID.TID 0000.0001) %MON vort_r_max                   =   1.9009631029865E-04
(PID.TID 0000.0001) %MON vort_a_mean                  =   0.0000000000000E+00
(PID.TID 0000.0001) %MON vort_a_sd                    =   8.8861740286755E-05
(PID.TID 0000.0001) %MON vort_p_mean                  =   0.0000000000000E+00
(PID.TID 0000.0001) %MON vort_p_sd                    =   8.8861740286755E-05
(PID.TID 0000.0001) %MON surfExpan_theta_mean         =  -3.1879862235096E-03
(PID.TID 0000.0001) %MON surfExpan_salt_mean          =  -1.6118123943494E-03
(PID.TID 0000.0001) %MON surfExpan_Heat_mean          =  -3.2152626620482E-01
(PID.TID 0000.0001) %MON En_Budget_T2PE_mean          =   1.8603752389251E+00
(PID.TID 0000.0001) // =======================================================
(PID.TID 0000.0001) // End MONITOR dynamic field statistics
(PID.TID 0000.0001) // =======================================================
(PID.TID 0000.0001) // =======================================================
(PID.TID 0000.0001) // Begin MONITOR Land statistics
(PID.TID 0000.0001) // =======================================================
(PID.TID 0000.0001) %MON land_time_sec                =   6.6749185800000E+11
(PID.TID 0000.0001) %MON land_SnwH_ave_G              =   3.8355738153386E-03
(PID.TID 0000.0001) %MON land_SnwH_ave_S              =   0.0000000000000E+00
(PID.TID 0000.0001) %MON land_SnwH_ave_T              =   0.0000000000000E+00
(PID.TID 0000.0001) %MON land_SnwH_ave_N              =   7.1833925294022E-03
(PID.TID 0000.0001) %MON land_SnwH_max_S              =   0.0000000000000E+00
(PID.TID 0000.0001) %MON land_SnwH_max_T              =   0.0000000000000E+00
(PID.TID 0000.0001) %MON land_SnwH_max_N              =   7.3268814328833E-02
(PID.TID 0000.0001) %MON land_Tsrf_ave_G              =   1.4822853408896E+01
(PID.TID 0000.0001) %MON land_Tsrf_ave_S              =   3.6410811028091E+01
(PID.TID 0000.0001) %MON land_Tsrf_ave_T              =   2.8249933530065E+01
(PID.TID 0000.0001) %MON land_Tsrf_ave_N              =   1.7587203260922E+00
(PID.TID 0000.0001) %MON land_Tsrf_min_S              =   3.1426114984197E+01
(PID.TID 0000.0001) %MON land_Tsrf_min_T              =   2.6068372549180E+01
(PID.TID 0000.0001) %MON land_Tsrf_min_N              =  -1.9936238595540E+01
(PID.TID 0000.0001) %MON land_Tsrf_max_S              =   4.1282235145396E+01
(PID.TID 0000.0001) %MON land_Tsrf_max_T              =   3.1748382360744E+01
(PID.TID 0000.0001) %MON land_Tsrf_max_N              =   2.8362229285167E+01
(PID.TID 0000.0001) %MON land_Tgr1_ave_G              =   1.4846584193168E+01
(PID.TID 0000.0001) %MON land_Tgr1_ave_S              =   3.6410811028091E+01
(PID.TID 0000.0001) %MON land_Tgr1_ave_T              =   2.8249933530065E+01
(PID.TID 0000.0001) %MON land_Tgr1_ave_N              =   1.8031641424982E+00
(PID.TID 0000.0001) %MON land_Tgr1_min_S              =   3.1426114984197E+01
(PID.TID 0000.0001) %MON land_Tgr1_min_T              =   2.6068372549180E+01
(PID.TID 0000.0001) %MON land_Tgr1_min_N              =  -1.9910469945194E+01
(PID.TID 0000.0001) %MON land_Tgr1_max_S              =   4.1282235145396E+01
(PID.TID 0000.0001) %MON land_Tgr1_max_T              =   3.1748382360744E+01
(PID.TID 0000.0001) %MON land_Tgr1_max_N              =   2.8362229285167E+01
(PID.TID 0000.0001) %MON land_Tgr2_ave_G              =   1.8544601416153E+01
(PID.TID 0000.0001) %MON land_Tgr2_ave_S              =   2.5511747885594E+01
(PID.TID 0000.0001) %MON land_Tgr2_ave_T              =   2.8640135993060E+01
(PID.TID 0000.0001) %MON land_Tgr2_ave_N              =   1.0248285913812E+01
(PID.TID 0000.0001) %MON land_Tgr2_min_S              =   2.1480180232670E+01
(PID.TID 0000.0001) %MON land_Tgr2_min_T              =   2.7869876001783E+01
(PID.TID 0000.0001) %MON land_Tgr2_min_N              =  -3.5016880346949E+00
(PID.TID 0000.0001) %MON land_Tgr2_max_S              =   2.8431117973523E+01
(PID.TID 0000.0001) %MON land_Tgr2_max_T              =   3.0667873141869E+01
(PID.TID 0000.0001) %MON land_Tgr2_max_N              =   3.1150220134610E+01
(PID.TID 0000.0001) %MON land_TotEnerg_G              =   1.0747806571307E+21
(PID.TID 0000.0001) %MON land_TotEnerg_S              =   1.3500263223628E+20
(PID.TID 0000.0001) %MON land_TotEnerg_T              =   9.7290810124746E+20
(PID.TID 0000.0001) %MON land_TotEnerg_N              =  -3.3130076353052E+19
(PID.TID 0000.0001) %MON land_grdW_ave_G              =   7.0718013818584E-01
(PID.TID 0000.0001) %MON land_grdW_ave_S              =   1.2697362174590E-01
(PID.TID 0000.0001) %MON land_grdW_ave_T              =   7.6785513051881E-01
(PID.TID 0000.0001) %MON land_grdW_ave_N              =   7.5980761508096E-01
(PID.TID 0000.0001) %MON land_grdW_min_S              =   1.4912660492930E-02
(PID.TID 0000.0001) %MON land_grdW_min_T              =   1.3251373648468E-01
(PID.TID 0000.0001) %MON land_grdW_min_N              =   4.4447840148223E-02
(PID.TID 0000.0001) // =======================================================
(PID.TID 0000.0001) // End MONITOR Land statistics
(PID.TID 0000.0001) // =======================================================
(PID.TID 0000.0001) // =======================================================
(PID.TID 0000.0001) // Begin MONITOR Therm.SeaIce statistics
(PID.TID 0000.0001) // =======================================================
(PID.TID 0000.0001) %MON thSI_time_sec                =   6.6749185800000E+11
(PID.TID 0000.0001) %MON thSI_Ice_Area_G              =   4.9759478663262E+13
(PID.TID 0000.0001) %MON thSI_Ice_Area_S              =   4.9759478663262E+13
(PID.TID 0000.0001) %MON thSI_Ice_Area_N              =   0.0000000000000E+00
(PID.TID 0000.0001) %MON thSI_IceH_ave_G              =   9.9204120925197E+00
(PID.TID 0000.0001) %MON thSI_IceH_ave_S              =   9.9204120925197E+00
(PID.TID 0000.0001) %MON thSI_IceH_ave_N              =   0.0000000000000E+00
(PID.TID 0000.0001) %MON thSI_IceH_max_S              =   2.2476339209487E+01
(PID.TID 0000.0001) %MON thSI_IceH_max_N              =   0.0000000000000E+00
(PID.TID 0000.0001) %MON thSI_SnwH_ave_G              =   4.8241980004827E-02
(PID.TID 0000.0001) %MON thSI_SnwH_ave_S              =   4.8241980004827E-02
(PID.TID 0000.0001) %MON thSI_SnwH_ave_N              =   0.0000000000000E+00
(PID.TID 0000.0001) %MON thSI_SnwH_max_S              =   3.2008661113248E-01
(PID.TID 0000.0001) %MON thSI_SnwH_max_N              =   0.0000000000000E+00
(PID.TID 0000.0001) %MON thSI_Tsrf_ave_G              =  -8.6382481661467E-01
(PID.TID 0000.0001) %MON thSI_Tsrf_ave_S              =  -8.6382481661467E-01
(PID.TID 0000.0001) %MON thSI_Tsrf_ave_N              =   0.0000000000000E+00
(PID.TID 0000.0001) %MON thSI_Tsrf_min_S              =  -8.8005097957301E+00
(PID.TID 0000.0001) %MON thSI_Tsrf_min_N              =   0.0000000000000E+00
(PID.TID 0000.0001) %MON thSI_Tsrf_max_S              =   0.0000000000000E+00
(PID.TID 0000.0001) %MON thSI_Tsrf_max_N              =   0.0000000000000E+00
(PID.TID 0000.0001) %MON thSI_Tic1_ave_G              =  -1.4095899992989E+01
(PID.TID 0000.0001) %MON thSI_Tic1_ave_S              =  -1.4095899992989E+01
(PID.TID 0000.0001) %MON thSI_Tic1_ave_N              =   0.0000000000000E+00
(PID.TID 0000.0001) %MON thSI_Tic1_min_S              =  -1.9921622255502E+01
(PID.TID 0000.0001) %MON thSI_Tic1_min_N              =   0.0000000000000E+00
(PID.TID 0000.0001) %MON thSI_Tic1_max_S              =  -1.4828743311898E-01
(PID.TID 0000.0001) %MON thSI_Tic1_max_N              =   0.0000000000000E+00
(PID.TID 0000.0001) %MON thSI_Tic2_ave_G              =  -6.1606612914486E+00
(PID.TID 0000.0001) %MON thSI_Tic2_ave_S              =  -6.1606612914486E+00
(PID.TID 0000.0001) %MON thSI_Tic2_ave_N              =   0.0000000000000E+00
(PID.TID 0000.0001) %MON thSI_Tic2_min_S              =  -7.6251585337616E+00
(PID.TID 0000.0001) %MON thSI_Tic2_min_N              =   0.0000000000000E+00
(PID.TID 0000.0001) %MON thSI_Tic2_max_S              =  -1.5123862780529E-02
(PID.TID 0000.0001) %MON thSI_Tic2_max_N              =   0.0000000000000E+00
(PID.TID 0000.0001) %MON thSI_TotEnerg_G              =  -1.5752372254424E+23
(PID.TID 0000.0001) // =======================================================
(PID.TID 0000.0001) // End MONITOR Therm.SeaIce statistics
(PID.TID 0000.0001) // =======================================================
(PID.TID 0000.0001)   Exporting atmospheric surf fluxes at iter= 556243215
(PID.TID 0000.0001)   Importing  oceanic surface fields at iter= 556243215
 cg2d: Sum(rhs),rhsMax =  -2.18644272536039E-05  5.24637495463734E+03
(PID.TID 0000.0001)      cg2d_init_res =   1.00798838489477E+03
(PID.TID 0000.0001)      cg2d_iters(min,last) =      -1      23
(PID.TID 0000.0001)      cg2d_last_res =   4.11988313769709E-11
 cg3d: Sum(rhs),rhsMax =  -3.35803433670900E-14  6.41424634451307E+00
(PID.TID 0000.0001)      cg3d_init_res =   6.99894980874680E-01
(PID.TID 0000.0001)      cg3d_iters (last) =                 11
(PID.TID 0000.0001)      cg3d_last_res =   6.34074901986916E-05
(PID.TID 0000.0001) // =======================================================
(PID.TID 0000.0001) // Begin MONITOR dynamic field statistics
(PID.TID 0000.0001) // =======================================================
(PID.TID 0000.0001) %MON time_tsnumber                =             556243216
(PID.TID 0000.0001) %MON time_secondsf                =   6.6749185920000E+11
(PID.TID 0000.0001) %MON dynstat_eta_max              =   2.2343837399486E+03
(PID.TID 0000.0001) %MON dynstat_eta_min              =  -4.4019582316849E+03
(PID.TID 0000.0001) %MON dynstat_eta_mean             =   6.2210002292640E-09
(PID.TID 0000.0001) %MON dynstat_eta_sd               =   9.7911457825030E+02
(PID.TID 0000.0001) %MON dynstat_eta_del2             =   4.3656941833309E+00
(PID.TID 0000.0001) %MON dynstat_uvel_max             =   7.4437693309795E+01
(PID.TID 0000.0001) %MON dynstat_uvel_min             =  -5.9662780672483E+01
(PID.TID 0000.0001) %MON dynstat_uvel_mean            =   1.8386216093187E+00
(PID.TID 0000.0001) %MON dynstat_uvel_sd              =   1.2402296004416E+01
(PID.TID 0000.0001) %MON dynstat_uvel_del2            =   4.8161079491576E-02
(PID.TID 0000.0001) %MON dynstat_vvel_max             =   1.0406284495928E+02
(PID.TID 0000.0001) %MON dynstat_vvel_min             =  -5.2741033312696E+01
(PID.TID 0000.0001) %MON dynstat_vvel_mean            =   1.7908258712932E+00
(PID.TID 0000.0001) %MON dynstat_vvel_sd              =   1.2492642058078E+01
(PID.TID 0000.0001) %MON dynstat_vvel_del2            =   4.7657558416593E-02
(PID.TID 0000.0001) %MON dynstat_wvel_max             =   2.1445795075298E+00
(PID.TID 0000.0001) %MON dynstat_wvel_min             =  -3.5777628479955E+00
(PID.TID 0000.0001) %MON dynstat_wvel_mean            =   8.4798230206798E-19
(PID.TID 0000.0001) %MON dynstat_wvel_sd              =   9.4213466127756E-02
(PID.TID 0000.0001) %MON dynstat_wvel_del2            =   1.6229701872835E-03
(PID.TID 0000.0001) %MON dynstat_theta_max            =   5.0217410610245E+02
(PID.TID 0000.0001) %MON dynstat_theta_min            =   2.6604389008915E+02
(PID.TID 0000.0001) %MON dynstat_theta_mean           =   3.3729283412127E+02
(PID.TID 0000.0001) %MON dynstat_theta_sd             =   4.8955853200413E+01
(PID.TID 0000.0001) %MON dynstat_theta_del2           =   2.6994227983074E-02
(PID.TID 0000.0001) %MON dynstat_salt_max             =   1.7819928659603E+01
(PID.TID 0000.0001) %MON dynstat_salt_min             =  -2.0788844762502E+00
(PID.TID 0000.0001) %MON dynstat_salt_mean            =   3.2322966173891E+00
(PID.TID 0000.0001) %MON dynstat_salt_sd              =   3.9632770003012E+00
(PID.TID 0000.0001) %MON dynstat_salt_del2            =   1.1986206065914E-02
(PID.TID 0000.0001) %MON trAdv_CFL_u_max              =   6.0050738435595E-01
(PID.TID 0000.0001) %MON trAdv_CFL_v_max              =   3.5026516134522E-01
(PID.TID 0000.0001) %MON trAdv_CFL_w_max              =   2.1813291315504E-01
(PID.TID 0000.0001) %MON advcfl_uvel_max              =   4.7283965031311E-01
(PID.TID 0000.0001) %MON advcfl_vvel_max              =   4.2440754876684E-01
(PID.TID 0000.0001) %MON advcfl_wvel_max              =   1.7173261670379E-01
(PID.TID 0000.0001) %MON advcfl_W_hf_max              =   2.1466577087973E-01
(PID.TID 0000.0001) %MON am_eta_mean                  =   2.4491987656899E+10
(PID.TID 0000.0001) %MON am_uZo_mean                  =   3.1471056184143E+11
(PID.TID 0000.0001) %MON am_tot_mean                  =   3.3920254949833E+11
(PID.TID 0000.0001) %MON pe_b_mean                    =   3.9820000776610E+00
(PID.TID 0000.0001) %MON ke_max                       =   5.3835288433495E+03
(PID.TID 0000.0001) %MON ke_mean                      =   1.5816586638787E+02
(PID.TID 0000.0001) %MON ke_vol                       =   5.0995454902520E+19
(PID.TID 0000.0001) %MON vort_r_min                   =  -4.2113374042549E-04
(PID.TID 0000.0001) %MON vort_r_max                   =   1.8959664795206E-04
(PID.TID 0000.0001) %MON vort_a_mean                  =  -8.0889561783203E-20
(PID.TID 0000.0001) %MON vort_a_sd                    =   8.8865695584553E-05
(PID.TID 0000.0001) %MON vort_p_mean                  =  -8.0889561783203E-20
(PID.TID 0000.0001) %MON vort_p_sd                    =   8.8865695584553E-05
(PID.TID 0000.0001) %MON surfExpan_theta_mean         =  -3.2010694735023E-03
(PID.TID 0000.0001) %MON surfExpan_salt_mean          =  -1.6067774993026E-03
(PID.TID 0000.0001) %MON surfExpan_Heat_mean          =  -3.2284578524444E-01
(PID.TID 0000.0001) %MON En_Budget_T2PE_mean          =   1.8605111060306E+00
(PID.TID 0000.0001) // =======================================================
(PID.TID 0000.0001) // End MONITOR dynamic field statistics
(PID.TID 0000.0001) // =======================================================
(PID.TID 0000.0001) // =======================================================
(PID.TID 0000.0001) // Begin MONITOR Land statistics
(PID.TID 0000.0001) // =======================================================
(PID.TID 0000.0001) %MON land_time_sec                =   6.6749185920000E+11
(PID.TID 0000.0001) %MON land_SnwH_ave_G              =   3.8379062323521E-03
(PID.TID 0000.0001) %MON land_SnwH_ave_S              =   0.0000000000000E+00
(PID.TID 0000.0001) %MON land_SnwH_ave_T              =   0.0000000000000E+00
(PID.TID 0000.0001) %MON land_SnwH_ave_N              =   7.1877607589703E-03
(PID.TID 0000.0001) %MON land_SnwH_max_S              =   0.0000000000000E+00
(PID.TID 0000.0001) %MON land_SnwH_max_T              =   0.0000000000000E+00
(PID.TID 0000.0001) %MON land_SnwH_max_N              =   7.3268779473440E-02
(PID.TID 0000.0001) %MON land_Tsrf_ave_G              =   1.4830933044415E+01
(PID.TID 0000.0001) %MON land_Tsrf_ave_S              =   3.6450051045323E+01
(PID.TID 0000.0001) %MON land_Tsrf_ave_T              =   2.8257323337949E+01
(PID.TID 0000.0001) %MON land_Tsrf_ave_N              =   1.7621546731598E+00
(PID.TID 0000.0001) %MON land_Tsrf_min_S              =   3.1428027440513E+01
(PID.TID 0000.0001) %MON land_Tsrf_min_T              =   2.6081576364256E+01
(PID.TID 0000.0001) %MON land_Tsrf_min_N              =  -1.9933197007595E+01
(PID.TID 0000.0001) %MON land_Tsrf_max_S              =   4.1336806647839E+01
(PID.TID 0000.0001) %MON land_Tsrf_max_T              =   3.1816005855889E+01
(PID.TID 0000.0001) %MON land_Tsrf_max_N              =   2.8306499799834E+01
(PID.TID 0000.0001) %MON land_Tgr1_ave_G              =   1.4854353443220E+01
(PID.TID 0000.0001) %MON land_Tgr1_ave_S              =   3.6450051045323E+01
(PID.TID 0000.0001) %MON land_Tgr1_ave_T              =   2.8257323337949E+01
(PID.TID 0000.0001) %MON land_Tgr1_ave_N              =   1.8060171891515E+00
(PID.TID 0000.0001) %MON land_Tgr1_min_S              =   3.1428027440513E+01
(PID.TID 0000.0001) %MON land_Tgr1_min_T              =   2.6081576364256E+01
(PID.TID 0000.0001) %MON land_Tgr1_min_N              =  -1.9907321442762E+01
(PID.TID 0000.0001) %MON land_Tgr1_max_S              =   4.1336806647839E+01
(PID.TID 0000.0001) %MON land_Tgr1_max_T              =   3.1816005855889E+01
(PID.TID 0000.0001) %MON land_Tgr1_max_N              =   2.8306499799834E+01
(PID.TID 0000.0001) %MON land_Tgr2_ave_G              =   1.8544520262828E+01
(PID.TID 0000.0001) %MON land_Tgr2_ave_S              =   2.5512317892924E+01
(PID.TID 0000.0001) %MON land_Tgr2_ave_T              =   2.8640120952169E+01
(PID.TID 0000.0001) %MON land_Tgr2_ave_N              =   1.0248050667310E+01
(PID.TID 0000.0001) %MON land_Tgr2_min_S              =   2.1480878843750E+01
(PID.TID 0000.0001) %MON land_Tgr2_min_T              =   2.7869885401531E+01
(PID.TID 0000.0001) %MON land_Tgr2_min_N              =  -3.5020926091045E+00
(PID.TID 0000.0001) %MON land_Tgr2_max_S              =   2.8431562619614E+01
(PID.TID 0000.0001) %MON land_Tgr2_max_T              =   3.0667785437263E+01
(PID.TID 0000.0001) %MON land_Tgr2_max_N              =   3.1150085633888E+01
(PID.TID 0000.0001) %MON land_TotEnerg_G              =   1.0747742652589E+21
(PID.TID 0000.0001) %MON land_TotEnerg_S              =   1.3501054995368E+20
(PID.TID 0000.0001) %MON land_TotEnerg_T              =   9.7290598452134E+20
(PID.TID 0000.0001) %MON land_TotEnerg_N              =  -3.3142269216073E+19
(PID.TID 0000.0001) %MON land_grdW_ave_G              =   7.0717396058461E-01
(PID.TID 0000.0001) %MON land_grdW_ave_S              =   1.2697592360416E-01
(PID.TID 0000.0001) %MON land_grdW_ave_T              =   7.6784039308093E-01
(PID.TID 0000.0001) %MON land_grdW_ave_N              =   7.5980610153281E-01
(PID.TID 0000.0001) %MON land_grdW_min_S              =   1.4847187200486E-02
(PID.TID 0000.0001) %MON land_grdW_min_T              =   1.3296227524077E-01
(PID.TID 0000.0001) %MON land_grdW_min_N              =   4.4395408657165E-02
(PID.TID 0000.0001) // =======================================================
(PID.TID 0000.0001) // End MONITOR Land statistics
(PID.TID 0000.0001) // =======================================================
(PID.TID 0000.0001) // =======================================================
(PID.TID 0000.0001) // Begin MONITOR Therm.SeaIce statistics
(PID.TID 0000.0001) // =======================================================
(PID.TID 0000.0001) %MON thSI_time_sec                =   6.6749185920000E+11
(PID.TID 0000.0001) %MON thSI_Ice_Area_G              =   4.9757958084715E+13
(PID.TID 0000.0001) %MON thSI_Ice_Area_S              =   4.9757958084715E+13
(PID.TID 0000.0001) %MON thSI_Ice_Area_N              =   0.0000000000000E+00
(PID.TID 0000.0001) %MON thSI_IceH_ave_G              =   9.9206338444669E+00
(PID.TID 0000.0001) %MON thSI_IceH_ave_S              =   9.9206338444669E+00
(PID.TID 0000.0001) %MON thSI_IceH_ave_N              =   0.0000000000000E+00
(PID.TID 0000.0001) %MON thSI_IceH_max_S              =   2.2476344673195E+01
(PID.TID 0000.0001) %MON thSI_IceH_max_N              =   0.0000000000000E+00
(PID.TID 0000.0001) %MON thSI_SnwH_ave_G              =   4.8164108548994E-02
(PID.TID 0000.0001) %MON thSI_SnwH_ave_S              =   4.8164108548994E-02
(PID.TID 0000.0001) %MON thSI_SnwH_ave_N              =   0.0000000000000E+00
(PID.TID 0000.0001) %MON thSI_SnwH_max_S              =   3.1988367747034E-01
(PID.TID 0000.0001) %MON thSI_SnwH_max_N              =   0.0000000000000E+00
(PID.TID 0000.0001) %MON thSI_Tsrf_ave_G              =  -8.6643893084850E-01
(PID.TID 0000.0001) %MON thSI_Tsrf_ave_S              =  -8.6643893084850E-01
(PID.TID 0000.0001) %MON thSI_Tsrf_ave_N              =   0.0000000000000E+00
(PID.TID 0000.0001) %MON thSI_Tsrf_min_S              =  -8.8009146068285E+00
(PID.TID 0000.0001) %MON thSI_Tsrf_min_N              =   0.0000000000000E+00
(PID.TID 0000.0001) %MON thSI_Tsrf_max_S              =   0.0000000000000E+00
(PID.TID 0000.0001) %MON thSI_Tsrf_max_N              =   0.0000000000000E+00
(PID.TID 0000.0001) %MON thSI_Tic1_ave_G              =  -1.4095186260806E+01
(PID.TID 0000.0001) %MON thSI_Tic1_ave_S              =  -1.4095186260806E+01
(PID.TID 0000.0001) %MON thSI_Tic1_ave_N              =   0.0000000000000E+00
(PID.TID 0000.0001) %MON thSI_Tic1_min_S              =  -1.9921174753139E+01
(PID.TID 0000.0001) %MON thSI_Tic1_min_N              =   0.0000000000000E+00
(PID.TID 0000.0001) %MON thSI_Tic1_max_S              =  -1.4878487443993E-01
(PID.TID 0000.0001) %MON thSI_Tic1_max_N              =   0.0000000000000E+00
(PID.TID 0000.0001) %MON thSI_Tic2_ave_G              =  -6.1606058967718E+00
(PID.TID 0000.0001) %MON thSI_Tic2_ave_S              =  -6.1606058967718E+00
(PID.TID 0000.0001) %MON thSI_Tic2_ave_N              =   0.0000000000000E+00
(PID.TID 0000.0001) %MON thSI_Tic2_min_S              =  -7.6251606068911E+00
(PID.TID 0000.0001) %MON thSI_Tic2_min_N              =   0.0000000000000E+00
(PID.TID 0000.0001) %MON thSI_Tic2_max_S              =  -1.0388780617613E-02
(PID.TID 0000.0001) %MON thSI_Tic2_max_N              =   0.0000000000000E+00
(PID.TID 0000.0001) %MON thSI_TotEnerg_G              =  -1.5752149746799E+23
(PID.TID 0000.0001) // =======================================================
(PID.TID 0000.0001) // End MONITOR Therm.SeaIce statistics
(PID.TID 0000.0001) // =======================================================
 Compute Stats, Diag. #    187  SI_Fract  vol(   0 ): 5.100E+14  Parms: SM P    M1      
 Compute Stats, Diag. #    188  SI_Thick  vol(   0 ): 4.976E+13  Parms: SM PC   M1      
    use Counter Mate  #    187  SI_Fract  vol(   0 ): 5.100E+14 integral 4.976E+13
 Compute Stats, Diag. #    273  aim_pCO2  vol(   0 ): 5.100E+14  Parms: SM P    L1      
 Compute Stats, Diag. #    279  CPL_fCO2  vol(   0 ): 5.100E+14  Parms: SM      M1      
 Compute Stats, Diag. #    275  CPL_MxlD  vol(   0 ): 5.100E+14  Parms: SM      M1      
 Compute Stats, Diag. #    276  CPL_SST   vol(   0 ): 5.100E+14  Parms: SM      M1      
 Compute Stats, Diag. #    277  CPL_SSS   vol(   0 ): 5.100E+14  Parms: SM      M1      
 Compute Stats, Diag. #    278  CPL_Vel2  vol(   0 ): 5.100E+14  Parms: SM      M1      
 cg2d: Sum(rhs),rhsMax =  -2.18646018765867E-05  5.23062309216222E+03
(PID.TID 0000.0001)      cg2d_init_res =   1.01278167887663E+03
(PID.TID 0000.0001)      cg2d_iters(min,last) =      -1      23
(PID.TID 0000.0001)      cg2d_last_res =   4.10961067455815E-11
 cg3d: Sum(rhs),rhsMax =   2.50655399214317E-13  5.65648857548223E+00
(PID.TID 0000.0001)      cg3d_init_res =   8.32794566671118E-01
(PID.TID 0000.0001)      cg3d_iters (last) =                 11
(PID.TID 0000.0001)      cg3d_last_res =   7.63764612881144E-05
(PID.TID 0000.0001) // =======================================================
(PID.TID 0000.0001) // Begin MONITOR dynamic field statistics
(PID.TID 0000.0001) // =======================================================
(PID.TID 0000.0001) %MON time_tsnumber                =             556243217
(PID.TID 0000.0001) %MON time_secondsf                =   6.6749186040000E+11
(PID.TID 0000.0001) %MON dynstat_eta_max              =   2.2337572651296E+03
(PID.TID 0000.0001) %MON dynstat_eta_min              =  -4.4077172629253E+03
(PID.TID 0000.0001) %MON dynstat_eta_mean             =   6.2210387832881E-09
(PID.TID 0000.0001) %MON dynstat_eta_sd               =   9.7916188059986E+02
(PID.TID 0000.0001) %MON dynstat_eta_del2             =   4.3690717723823E+00
(PID.TID 0000.0001) %MON dynstat_uvel_max             =   7.3457621564021E+01
(PID.TID 0000.0001) %MON dynstat_uvel_min             =  -5.9662971216882E+01
(PID.TID 0000.0001) %MON dynstat_uvel_mean            =   1.8390055579375E+00
(PID.TID 0000.0001) %MON dynstat_uvel_sd              =   1.2401346359488E+01
(PID.TID 0000.0001) %MON dynstat_uvel_del2            =   4.8297208266656E-02
(PID.TID 0000.0001) %MON dynstat_vvel_max             =   1.0432606385033E+02
(PID.TID 0000.0001) %MON dynstat_vvel_min             =  -5.2538295177571E+01
(PID.TID 0000.0001) %MON dynstat_vvel_mean            =   1.7906904699174E+00
(PID.TID 0000.0001) %MON dynstat_vvel_sd              =   1.2494707370647E+01
(PID.TID 0000.0001) %MON dynstat_vvel_del2            =   4.7669544531852E-02
(PID.TID 0000.0001) %MON dynstat_wvel_max             =   2.2616605508957E+00
(PID.TID 0000.0001) %MON dynstat_wvel_min             =  -3.4791566253230E+00
(PID.TID 0000.0001) %MON dynstat_wvel_mean            =   1.6959646041360E-18
(PID.TID 0000.0001) %MON dynstat_wvel_sd              =   9.4333306054506E-02
(PID.TID 0000.0001) %MON dynstat_wvel_del2            =   1.6402671324138E-03
(PID.TID 0000.0001) %MON dynstat_theta_max            =   5.0218441557906E+02
(PID.TID 0000.0001) %MON dynstat_theta_min            =   2.6602826870581E+02
(PID.TID 0000.0001) %MON dynstat_theta_mean           =   3.3729238027967E+02
(PID.TID 0000.0001) %MON dynstat_theta_sd             =   4.8956138907072E+01
(PID.TID 0000.0001) %MON dynstat_theta_del2           =   2.7017300171645E-02
(PID.TID 0000.0001) %MON dynstat_salt_max             =   1.7813727473219E+01
(PID.TID 0000.0001) %MON dynstat_salt_min             =  -2.0285848784952E+00
(PID.TID 0000.0001) %MON dynstat_salt_mean            =   3.2322234039406E+00
(PID.TID 0000.0001) %MON dynstat_salt_sd              =   3.9632000349605E+00
(PID.TID 0000.0001) %MON dynstat_salt_del2            =   1.1985572866747E-02
(PID.TID 0000.0001) %MON trAdv_CFL_u_max              =   5.9574503476202E-01
(PID.TID 0000.0001) %MON trAdv_CFL_v_max              =   3.4958574973016E-01
(PID.TID 0000.0001) %MON trAdv_CFL_w_max              =   2.2889369422101E-01
(PID.TID 0000.0001) %MON advcfl_uvel_max              =   4.7642351841336E-01
(PID.TID 0000.0001) %MON advcfl_vvel_max              =   4.3297936603895E-01
(PID.TID 0000.0001) %MON advcfl_wvel_max              =   1.6699951801550E-01
(PID.TID 0000.0001) %MON advcfl_W_hf_max              =   2.0874939751938E-01
(PID.TID 0000.0001) %MON am_eta_mean                  =   2.4501782542201E+10
(PID.TID 0000.0001) %MON am_uZo_mean                  =   3.1470976433013E+11
(PID.TID 0000.0001) %MON am_tot_mean                  =   3.3921154687233E+11
(PID.TID 0000.0001) %MON pe_b_mean                    =   3.9823848385740E+00
(PID.TID 0000.0001) %MON ke_max                       =   5.3950464848699E+03
(PID.TID 0000.0001) %MON ke_mean                      =   1.5818015566275E+02
(PID.TID 0000.0001) %MON ke_vol                       =   5.0995454902520E+19
(PID.TID 0000.0001) %MON vort_r_min                   =  -4.6584374998199E-04
(PID.TID 0000.0001) %MON vort_r_max                   =   1.8728487754481E-04
(PID.TID 0000.0001) %MON vort_a_mean                  =  -4.4121579154475E-20
(PID.TID 0000.0001) %MON vort_a_sd                    =   8.8869763939205E-05
(PID.TID 0000.0001) %MON vort_p_mean                  =  -4.4121579154475E-20
(PID.TID 0000.0001) %MON vort_p_sd                    =   8.8869763939205E-05
(PID.TID 0000.0001) %MON surfExpan_theta_mean         =  -3.2044786507032E-03
(PID.TID 0000.0001) %MON surfExpan_salt_mean          =  -1.6091507051596E-03
(PID.TID 0000.0001) %MON surfExpan_Heat_mean          =  -3.2318961985957E-01
(PID.TID 0000.0001) %MON En_Budget_T2PE_mean          =   1.8610200415931E+00
(PID.TID 0000.0001) // =======================================================
(PID.TID 0000.0001) // End MONITOR dynamic field statistics
(PID.TID 0000.0001) // =======================================================
(PID.TID 0000.0001) // =======================================================
(PID.TID 0000.0001) // Begin MONITOR Land statistics
(PID.TID 0000.0001) // =======================================================
(PID.TID 0000.0001) %MON land_time_sec                =   6.6749186040000E+11
(PID.TID 0000.0001) %MON land_SnwH_ave_G              =   3.8402762767673E-03
(PID.TID 0000.0001) %MON land_SnwH_ave_S              =   0.0000000000000E+00
(PID.TID 0000.0001) %MON land_SnwH_ave_T              =   0.0000000000000E+00
(PID.TID 0000.0001) %MON land_SnwH_ave_N              =   7.1921994584102E-03
(PID.TID 0000.0001) %MON land_SnwH_max_S              =   0.0000000000000E+00
(PID.TID 0000.0001) %MON land_SnwH_max_T              =   0.0000000000000E+00
(PID.TID 0000.0001) %MON land_SnwH_max_N              =   7.3268732136214E-02
(PID.TID 0000.0001) %MON land_Tsrf_ave_G              =   1.4839606555491E+01
(PID.TID 0000.0001) %MON land_Tsrf_ave_S              =   3.6486000659685E+01
(PID.TID 0000.0001) %MON land_Tsrf_ave_T              =   2.8264820906453E+01
(PID.TID 0000.0001) %MON land_Tsrf_ave_N              =   1.7671670484125E+00
(PID.TID 0000.0001) %MON land_Tsrf_min_S              =   3.1428908263454E+01
(PID.TID 0000.0001) %MON land_Tsrf_min_T              =   2.6094284802031E+01
(PID.TID 0000.0001) %MON land_Tsrf_min_N              =  -1.9930284377700E+01
(PID.TID 0000.0001) %MON land_Tsrf_max_S              =   4.1390251932910E+01
(PID.TID 0000.0001) %MON land_Tsrf_max_T              =   3.1881476857818E+01
(PID.TID 0000.0001) %MON land_Tsrf_max_N              =   2.8250744823685E+01
(PID.TID 0000.0001) %MON land_Tgr1_ave_G              =   1.4862468307972E+01
(PID.TID 0000.0001) %MON land_Tgr1_ave_S              =   3.6486000659685E+01
(PID.TID 0000.0001) %MON land_Tgr1_ave_T              =   2.8264820906453E+01
(PID.TID 0000.0001) %MON land_Tgr1_ave_N              =   1.8099833126502E+00
(PID.TID 0000.0001) %MON land_Tgr1_min_S              =   3.1428908263454E+01
(PID.TID 0000.0001) %MON land_Tgr1_min_T              =   2.6094284802031E+01
(PID.TID 0000.0001) %MON land_Tgr1_min_N              =  -1.9904287432709E+01
(PID.TID 0000.0001) %MON land_Tgr1_max_S              =   4.1390251932910E+01
(PID.TID 0000.0001) %MON land_Tgr1_max_T              =   3.1881476857818E+01
(PID.TID 0000.0001) %MON land_Tgr1_max_N              =   2.8250744823685E+01
(PID.TID 0000.0001) %MON land_Tgr2_ave_G              =   1.8544439445361E+01
(PID.TID 0000.0001) %MON land_Tgr2_ave_S              =   2.5512889721125E+01
(PID.TID 0000.0001) %MON land_Tgr2_ave_T              =   2.8640106172826E+01
(PID.TID 0000.0001) %MON land_Tgr2_ave_N              =   1.0247815564625E+01
(PID.TID 0000.0001) %MON land_Tgr2_min_S              =   2.1481578216247E+01
(PID.TID 0000.0001) %MON land_Tgr2_min_T              =   2.7869894906268E+01
(PID.TID 0000.0001) %MON land_Tgr2_min_N              =  -3.5024976445035E+00
(PID.TID 0000.0001) %MON land_Tgr2_max_S              =   2.8432009038441E+01
(PID.TID 0000.0001) %MON land_Tgr2_max_T              =   3.0667697146097E+01
(PID.TID 0000.0001) %MON land_Tgr2_max_N              =   3.1149948521381E+01
(PID.TID 0000.0001) %MON land_TotEnerg_G              =   1.0747687498501E+21
(PID.TID 0000.0001) %MON land_TotEnerg_S              =   1.3501810198971E+20
(PID.TID 0000.0001) %MON land_TotEnerg_T              =   9.7290392520335E+20
(PID.TID 0000.0001) %MON land_TotEnerg_N              =  -3.3153277342997E+19
(PID.TID 0000.0001) %MON land_grdW_ave_G              =   7.0716784118638E-01
(PID.TID 0000.0001) %MON land_grdW_ave_S              =   1.2697846062566E-01
(PID.TID 0000.0001) %MON land_grdW_ave_T              =   7.6782557468178E-01
(PID.TID 0000.0001) %MON land_grdW_ave_N              =   7.5980471557270E-01
(PID.TID 0000.0001) %MON land_grdW_min_S              =   1.4782820726881E-02
(PID.TID 0000.0001) %MON land_grdW_min_T              =   1.3349514015132E-01
(PID.TID 0000.0001) %MON land_grdW_min_N              =   4.4343988896430E-02
(PID.TID 0000.0001) // =======================================================
(PID.TID 0000.0001) // End MONITOR Land statistics
(PID.TID 0000.0001) // =======================================================
(PID.TID 0000.0001) // =======================================================
(PID.TID 0000.0001) // Begin MONITOR Therm.SeaIce statistics
(PID.TID 0000.0001) // =======================================================
(PID.TID 0000.0001) %MON thSI_time_sec                =   6.6749186040000E+11
(PID.TID 0000.0001) %MON thSI_Ice_Area_G              =   4.9756440467184E+13
(PID.TID 0000.0001) %MON thSI_Ice_Area_S              =   4.9756440467184E+13
(PID.TID 0000.0001) %MON thSI_Ice_Area_N              =   0.0000000000000E+00
(PID.TID 0000.0001) %MON thSI_IceH_ave_G              =   9.9208550593378E+00
(PID.TID 0000.0001) %MON thSI_IceH_ave_S              =   9.9208550593378E+00
(PID.TID 0000.0001) %MON thSI_IceH_ave_N              =   0.0000000000000E+00
(PID.TID 0000.0001) %MON thSI_IceH_max_S              =   2.2476350136903E+01
(PID.TID 0000.0001) %MON thSI_IceH_max_N              =   0.0000000000000E+00
(PID.TID 0000.0001) %MON thSI_SnwH_ave_G              =   4.8086315701704E-02
(PID.TID 0000.0001) %MON thSI_SnwH_ave_S              =   4.8086315701704E-02
(PID.TID 0000.0001) %MON thSI_SnwH_ave_N              =   0.0000000000000E+00
(PID.TID 0000.0001) %MON thSI_SnwH_max_S              =   3.1968078365222E-01
(PID.TID 0000.0001) %MON thSI_SnwH_max_N              =   0.0000000000000E+00
(PID.TID 0000.0001) %MON thSI_Tsrf_ave_G              =  -8.6762990891866E-01
(PID.TID 0000.0001) %MON thSI_Tsrf_ave_S              =  -8.6762990891866E-01
(PID.TID 0000.0001) %MON thSI_Tsrf_ave_N              =   0.0000000000000E+00
(PID.TID 0000.0001) %MON thSI_Tsrf_min_S              =  -8.8010488134696E+00
(PID.TID 0000.0001) %MON thSI_Tsrf_min_N              =   0.0000000000000E+00
(PID.TID 0000.0001) %MON thSI_Tsrf_max_S              =   0.0000000000000E+00
(PID.TID 0000.0001) %MON thSI_Tsrf_max_N              =   0.0000000000000E+00
(PID.TID 0000.0001) %MON thSI_Tic1_ave_G              =  -1.4094472694686E+01
(PID.TID 0000.0001) %MON thSI_Tic1_ave_S              =  -1.4094472694686E+01
(PID.TID 0000.0001) %MON thSI_Tic1_ave_N              =   0.0000000000000E+00
(PID.TID 0000.0001) %MON thSI_Tic1_min_S              =  -1.9920727187055E+01
(PID.TID 0000.0001) %MON thSI_Tic1_min_N              =   0.0000000000000E+00
(PID.TID 0000.0001) %MON thSI_Tic1_max_S              =  -1.4928961910259E-01
(PID.TID 0000.0001) %MON thSI_Tic1_max_N              =   0.0000000000000E+00
(PID.TID 0000.0001) %MON thSI_Tic2_ave_G              =  -6.1605505908986E+00
(PID.TID 0000.0001) %MON thSI_Tic2_ave_S              =  -6.1605505908986E+00
(PID.TID 0000.0001) %MON thSI_Tic2_ave_N              =   0.0000000000000E+00
(PID.TID 0000.0001) %MON thSI_Tic2_min_S              =  -7.6251626755084E+00
(PID.TID 0000.0001) %MON thSI_Tic2_min_N              =   0.0000000000000E+00
(PID.TID 0000.0001) %MON thSI_Tic2_max_S              =  -1.7848186721932E-02
(PID.TID 0000.0001) %MON thSI_Tic2_max_N              =   0.0000000000000E+00
(PID.TID 0000.0001) %MON thSI_TotEnerg_G              =  -1.5751927372697E+23
(PID.TID 0000.0001) // =======================================================
(PID.TID 0000.0001) // End MONITOR Therm.SeaIce statistics
(PID.TID 0000.0001) // =======================================================
 cg2d: Sum(rhs),rhsMax =  -2.18648347072303E-05  5.21637668117714E+03
(PID.TID 0000.0001)      cg2d_init_res =   1.00325331242340E+03
(PID.TID 0000.0001)      cg2d_iters(min,last) =      -1      23
(PID.TID 0000.0001)      cg2d_last_res =   4.07050823691280E-11
 cg3d: Sum(rhs),rhsMax =   2.40501629028556E-13  6.26011853541273E+00
(PID.TID 0000.0001)      cg3d_init_res =   7.76610259913468E-01
(PID.TID 0000.0001)      cg3d_iters (last) =                 10
(PID.TID 0000.0001)      cg3d_last_res =   9.38275833131707E-05
(PID.TID 0000.0001) // =======================================================
(PID.TID 0000.0001) // Begin MONITOR dynamic field statistics
(PID.TID 0000.0001) // =======================================================
(PID.TID 0000.0001) %MON time_tsnumber                =             556243218
(PID.TID 0000.0001) %MON time_secondsf                =   6.6749186160000E+11
(PID.TID 0000.0001) %MON dynstat_eta_max              =   2.2331253603620E+03
(PID.TID 0000.0001) %MON dynstat_eta_min              =  -4.4133240019078E+03
(PID.TID 0000.0001) %MON dynstat_eta_mean             =   6.2210259319467E-09
(PID.TID 0000.0001) %MON dynstat_eta_sd               =   9.7920207097068E+02
(PID.TID 0000.0001) %MON dynstat_eta_del2             =   4.3726352766252E+00
(PID.TID 0000.0001) %MON dynstat_uvel_max             =   7.3305028724079E+01
(PID.TID 0000.0001) %MON dynstat_uvel_min             =  -5.9739093554976E+01
(PID.TID 0000.0001) %MON dynstat_uvel_mean            =   1.8393897725611E+00
(PID.TID 0000.0001) %MON dynstat_uvel_sd              =   1.2400449112453E+01
(PID.TID 0000.0001) %MON dynstat_uvel_del2            =   4.8436043640903E-02
(PID.TID 0000.0001) %MON dynstat_vvel_max             =   1.0453904799941E+02
(PID.TID 0000.0001) %MON dynstat_vvel_min             =  -5.2331820805258E+01
(PID.TID 0000.0001) %MON dynstat_vvel_mean            =   1.7905268642788E+00
(PID.TID 0000.0001) %MON dynstat_vvel_sd              =   1.2496729659207E+01
(PID.TID 0000.0001) %MON dynstat_vvel_del2            =   4.7693814575683E-02
(PID.TID 0000.0001) %MON dynstat_wvel_max             =   2.2325870334922E+00
(PID.TID 0000.0001) %MON dynstat_wvel_min             =  -3.2384372923842E+00
(PID.TID 0000.0001) %MON dynstat_wvel_mean            =   7.6318407186118E-19
(PID.TID 0000.0001) %MON dynstat_wvel_sd              =   9.4371524261611E-02
(PID.TID 0000.0001) %MON dynstat_wvel_del2            =   1.6413313594570E-03
(PID.TID 0000.0001) %MON dynstat_theta_max            =   5.0219392260952E+02
(PID.TID 0000.0001) %MON dynstat_theta_min            =   2.6601276091684E+02
(PID.TID 0000.0001) %MON dynstat_theta_mean           =   3.3729188574761E+02
(PID.TID 0000.0001) %MON dynstat_theta_sd             =   4.8956397874478E+01
(PID.TID 0000.0001) %MON dynstat_theta_del2           =   2.7034064687919E-02
(PID.TID 0000.0001) %MON dynstat_salt_max             =   1.7807180121151E+01
(PID.TID 0000.0001) %MON dynstat_salt_min             =  -2.0210309337813E+00
(PID.TID 0000.0001) %MON dynstat_salt_mean            =   3.2321652029264E+00
(PID.TID 0000.0001) %MON dynstat_salt_sd              =   3.9631603078435E+00
(PID.TID 0000.0001) %MON dynstat_salt_del2            =   1.1983027244354E-02
(PID.TID 0000.0001) %MON trAdv_CFL_u_max              =   5.8790125494706E-01
(PID.TID 0000.0001) %MON trAdv_CFL_v_max              =   3.5223542011193E-01
(PID.TID 0000.0001) %MON trAdv_CFL_w_max              =   2.2963268704875E-01
(PID.TID 0000.0001) %MON advcfl_uvel_max              =   4.8969221215338E-01
(PID.TID 0000.0001) %MON advcfl_vvel_max              =   4.4171186156124E-01
(PID.TID 0000.0001) %MON advcfl_wvel_max              =   1.5544499003444E-01
(PID.TID 0000.0001) %MON advcfl_W_hf_max              =   1.9430623754305E-01
(PID.TID 0000.0001) %MON am_eta_mean                  =   2.4511379271633E+10
(PID.TID 0000.0001) %MON am_uZo_mean                  =   3.1470899552424E+11
(PID.TID 0000.0001) %MON am_tot_mean                  =   3.3922037479587E+11
(PID.TID 0000.0001) %MON pe_b_mean                    =   3.9827117647163E+00
(PID.TID 0000.0001) %MON ke_max                       =   5.4025305842721E+03
(PID.TID 0000.0001) %MON ke_mean                      =   1.5819447229676E+02
(PID.TID 0000.0001) %MON ke_vol                       =   5.0995454902520E+19
(PID.TID 0000.0001) %MON vort_r_min                   =  -4.8856610820143E-04
(PID.TID 0000.0001) %MON vort_r_max                   =   1.8320857014535E-04
(PID.TID 0000.0001) %MON vort_a_mean                  =  -1.3971833398917E-19
(PID.TID 0000.0001) %MON vort_a_sd                    =   8.8873567863903E-05
(PID.TID 0000.0001) %MON vort_p_mean                  =  -1.3971833398917E-19
(PID.TID 0000.0001) %MON vort_p_sd                    =   8.8873567863903E-05
(PID.TID 0000.0001) %MON surfExpan_theta_mean         =  -3.2129910526874E-03
(PID.TID 0000.0001) %MON surfExpan_salt_mean          =  -1.6153650972183E-03
(PID.TID 0000.0001) %MON surfExpan_Heat_mean          =  -3.2404814327673E-01
(PID.TID 0000.0001) %MON En_Budget_T2PE_mean          =   1.8619898881449E+00
(PID.TID 0000.0001) // =======================================================
(PID.TID 0000.0001) // End MONITOR dynamic field statistics
(PID.TID 0000.0001) // =======================================================
(PID.TID 0000.0001) // =======================================================
(PID.TID 0000.0001) // Begin MONITOR Land statistics
(PID.TID 0000.0001) // =======================================================
(PID.TID 0000.0001) %MON land_time_sec                =   6.6749186160000E+11
(PID.TID 0000.0001) %MON land_SnwH_ave_G              =   3.8426784893599E-03
(PID.TID 0000.0001) %MON land_SnwH_ave_S              =   0.0000000000000E+00
(PID.TID 0000.0001) %MON land_SnwH_ave_T              =   0.0000000000000E+00
(PID.TID 0000.0001) %MON land_SnwH_ave_N              =   7.1966984035024E-03
(PID.TID 0000.0001) %MON land_SnwH_max_S              =   0.0000000000000E+00
(PID.TID 0000.0001) %MON land_SnwH_max_T              =   0.0000000000000E+00
(PID.TID 0000.0001) %MON land_SnwH_max_N              =   7.3268671109595E-02
(PID.TID 0000.0001) %MON land_Tsrf_ave_G              =   1.4848313586639E+01
(PID.TID 0000.0001) %MON land_Tsrf_ave_S              =   3.6519290438367E+01
(PID.TID 0000.0001) %MON land_Tsrf_ave_T              =   2.8272421468735E+01
(PID.TID 0000.0001) %MON land_Tsrf_ave_N              =   1.7726074870801E+00
(PID.TID 0000.0001) %MON land_Tsrf_min_S              =   3.1428492714912E+01
(PID.TID 0000.0001) %MON land_Tsrf_min_T              =   2.6106955942642E+01
(PID.TID 0000.0001) %MON land_Tsrf_min_N              =  -1.9927473152946E+01
(PID.TID 0000.0001) %MON land_Tsrf_max_S              =   4.1442427041308E+01
(PID.TID 0000.0001) %MON land_Tsrf_max_T              =   3.1946814945899E+01
(PID.TID 0000.0001) %MON land_Tsrf_max_N              =   2.8195001780122E+01
(PID.TID 0000.0001) %MON land_Tgr1_ave_G              =   1.4870676072114E+01
(PID.TID 0000.0001) %MON land_Tgr1_ave_S              =   3.6519290438367E+01
(PID.TID 0000.0001) %MON land_Tgr1_ave_T              =   2.8272421468735E+01
(PID.TID 0000.0001) %MON land_Tgr1_ave_N              =   1.8144887071618E+00
(PID.TID 0000.0001) %MON land_Tgr1_min_S              =   3.1428492714912E+01
(PID.TID 0000.0001) %MON land_Tgr1_min_T              =   2.6106955942642E+01
(PID.TID 0000.0001) %MON land_Tgr1_min_N              =  -1.9901362907665E+01
(PID.TID 0000.0001) %MON land_Tgr1_max_S              =   4.1442427041308E+01
(PID.TID 0000.0001) %MON land_Tgr1_max_T              =   3.1946814945899E+01
(PID.TID 0000.0001) %MON land_Tgr1_max_N              =   2.8195001780122E+01
(PID.TID 0000.0001) %MON land_Tgr2_ave_G              =   1.8544358971722E+01
(PID.TID 0000.0001) %MON land_Tgr2_ave_S              =   2.5513463235409E+01
(PID.TID 0000.0001) %MON land_Tgr2_ave_T              =   2.8640091662838E+01
(PID.TID 0000.0001) %MON land_Tgr2_ave_N              =   1.0247580637360E+01
(PID.TID 0000.0001) %MON land_Tgr2_min_S              =   2.1482277380306E+01
(PID.TID 0000.0001) %MON land_Tgr2_min_T              =   2.7869904519741E+01
(PID.TID 0000.0001) %MON land_Tgr2_min_N              =  -3.5029031500976E+00
(PID.TID 0000.0001) %MON land_Tgr2_max_S              =   2.8432457176012E+01
(PID.TID 0000.0001) %MON land_Tgr2_max_T              =   3.0667608279788E+01
(PID.TID 0000.0001) %MON land_Tgr2_max_N              =   3.1149808797782E+01
(PID.TID 0000.0001) %MON land_TotEnerg_G              =   1.0747634113817E+21
(PID.TID 0000.0001) %MON land_TotEnerg_S              =   1.3502535963853E+20
(PID.TID 0000.0001) %MON land_TotEnerg_T              =   9.7290190282113E+20
(PID.TID 0000.0001) %MON land_TotEnerg_N              =  -3.3163851077996E+19
(PID.TID 0000.0001) %MON land_grdW_ave_G              =   7.0716182193331E-01
(PID.TID 0000.0001) %MON land_grdW_ave_S              =   1.2698121950944E-01
(PID.TID 0000.0001) %MON land_grdW_ave_T              =   7.6781069502449E-01
(PID.TID 0000.0001) %MON land_grdW_ave_N              =   7.5980352399131E-01
(PID.TID 0000.0001) %MON land_grdW_min_S              =   1.4719556718614E-02
(PID.TID 0000.0001) %MON land_grdW_min_T              =   1.3410117698508E-01
(PID.TID 0000.0001) %MON land_grdW_min_N              =   4.4292937282579E-02
(PID.TID 0000.0001) // =======================================================
(PID.TID 0000.0001) // End MONITOR Land statistics
(PID.TID 0000.0001) // =======================================================
(PID.TID 0000.0001) // =======================================================
(PID.TID 0000.0001) // Begin MONITOR Therm.SeaIce statistics
(PID.TID 0000.0001) // =======================================================
(PID.TID 0000.0001) %MON thSI_time_sec                =   6.6749186160000E+11
(PID.TID 0000.0001) %MON thSI_Ice_Area_G              =   4.9754925721899E+13
(PID.TID 0000.0001) %MON thSI_Ice_Area_S              =   4.9754925721899E+13
(PID.TID 0000.0001) %MON thSI_Ice_Area_N              =   0.0000000000000E+00
(PID.TID 0000.0001) %MON thSI_IceH_ave_G              =   9.9210757385910E+00
(PID.TID 0000.0001) %MON thSI_IceH_ave_S              =   9.9210757385910E+00
(PID.TID 0000.0001) %MON thSI_IceH_ave_N              =   0.0000000000000E+00
(PID.TID 0000.0001) %MON thSI_IceH_max_S              =   2.2476355600610E+01
(PID.TID 0000.0001) %MON thSI_IceH_max_N              =   0.0000000000000E+00
(PID.TID 0000.0001) %MON thSI_SnwH_ave_G              =   4.8008565819996E-02
(PID.TID 0000.0001) %MON thSI_SnwH_ave_S              =   4.8008565819996E-02
(PID.TID 0000.0001) %MON thSI_SnwH_ave_N              =   0.0000000000000E+00
(PID.TID 0000.0001) %MON thSI_SnwH_max_S              =   3.1947771331819E-01
(PID.TID 0000.0001) %MON thSI_SnwH_max_N              =   0.0000000000000E+00
(PID.TID 0000.0001) %MON thSI_Tsrf_ave_G              =  -8.6868749708678E-01
(PID.TID 0000.0001) %MON thSI_Tsrf_ave_S              =  -8.6868749708678E-01
(PID.TID 0000.0001) %MON thSI_Tsrf_ave_N              =   0.0000000000000E+00
(PID.TID 0000.0001) %MON thSI_Tsrf_min_S              =  -8.7986490595201E+00
(PID.TID 0000.0001) %MON thSI_Tsrf_min_N              =   0.0000000000000E+00
(PID.TID 0000.0001) %MON thSI_Tsrf_max_S              =   0.0000000000000E+00
(PID.TID 0000.0001) %MON thSI_Tsrf_max_N              =   0.0000000000000E+00
(PID.TID 0000.0001) %MON thSI_Tic1_ave_G              =  -1.4093759307927E+01
(PID.TID 0000.0001) %MON thSI_Tic1_ave_S              =  -1.4093759307927E+01
(PID.TID 0000.0001) %MON thSI_Tic1_ave_N              =   0.0000000000000E+00
(PID.TID 0000.0001) %MON thSI_Tic1_min_S              =  -1.9920279556351E+01
(PID.TID 0000.0001) %MON thSI_Tic1_min_N              =   0.0000000000000E+00
(PID.TID 0000.0001) %MON thSI_Tic1_max_S              =  -1.4980154105379E-01
(PID.TID 0000.0001) %MON thSI_Tic1_max_N              =   0.0000000000000E+00
(PID.TID 0000.0001) %MON thSI_Tic2_ave_G              =  -6.1604920536054E+00
(PID.TID 0000.0001) %MON thSI_Tic2_ave_S              =  -6.1604920536054E+00
(PID.TID 0000.0001) %MON thSI_Tic2_ave_N              =   0.0000000000000E+00
(PID.TID 0000.0001) %MON thSI_Tic2_min_S              =  -7.6251647392734E+00
(PID.TID 0000.0001) %MON thSI_Tic2_min_N              =   0.0000000000000E+00
(PID.TID 0000.0001) %MON thSI_Tic2_max_S              =  -1.3077153060374E-02
(PID.TID 0000.0001) %MON thSI_Tic2_max_N              =   0.0000000000000E+00
(PID.TID 0000.0001) %MON thSI_TotEnerg_G              =  -1.5751705085472E+23
(PID.TID 0000.0001) // =======================================================
(PID.TID 0000.0001) // End MONITOR Therm.SeaIce statistics
(PID.TID 0000.0001) // =======================================================
(PID.TID 0000.0001)   Exporting atmospheric surf fluxes at iter= 556243218
(PID.TID 0000.0001)   Importing  oceanic surface fields at iter= 556243218
 cg2d: Sum(rhs),rhsMax =  -2.18642526306212E-05  5.21700669586719E+03
(PID.TID 0000.0001)      cg2d_init_res =   9.65056767550587E+02
(PID.TID 0000.0001)      cg2d_iters(min,last) =      -1      23
(PID.TID 0000.0001)      cg2d_last_res =   3.96209201774843E-11
 cg3d: Sum(rhs),rhsMax =   1.97844345073417E-13  6.34816385871089E+00
(PID.TID 0000.0001)      cg3d_init_res =   8.51143373080140E-01
(PID.TID 0000.0001)      cg3d_iters (last) =                 11
(PID.TID 0000.0001)      cg3d_last_res =   7.66264048740874E-05
(PID.TID 0000.0001) // =======================================================
(PID.TID 0000.0001) // Begin MONITOR dynamic field statistics
(PID.TID 0000.0001) // =======================================================
(PID.TID 0000.0001) %MON time_tsnumber                =             556243219
(PID.TID 0000.0001) %MON time_secondsf                =   6.6749186280000E+11
(PID.TID 0000.0001) %MON dynstat_eta_max              =   2.2324912068015E+03
(PID.TID 0000.0001) %MON dynstat_eta_min              =  -4.4188318825056E+03
(PID.TID 0000.0001) %MON dynstat_eta_mean             =   6.2210387832881E-09
(PID.TID 0000.0001) %MON dynstat_eta_sd               =   9.7923523660614E+02
(PID.TID 0000.0001) %MON dynstat_eta_del2             =   4.3762652275900E+00
(PID.TID 0000.0001) %MON dynstat_uvel_max             =   7.4563462094414E+01
(PID.TID 0000.0001) %MON dynstat_uvel_min             =  -5.9782620351997E+01
(PID.TID 0000.0001) %MON dynstat_uvel_mean            =   1.8397921650385E+00
(PID.TID 0000.0001) %MON dynstat_uvel_sd              =   1.2399566669367E+01
(PID.TID 0000.0001) %MON dynstat_uvel_del2            =   4.8564742280327E-02
(PID.TID 0000.0001) %MON dynstat_vvel_max             =   1.0469829179454E+02
(PID.TID 0000.0001) %MON dynstat_vvel_min             =  -5.2122022647959E+01
(PID.TID 0000.0001) %MON dynstat_vvel_mean            =   1.7903299975069E+00
(PID.TID 0000.0001) %MON dynstat_vvel_sd              =   1.2498745784037E+01
(PID.TID 0000.0001) %MON dynstat_vvel_del2            =   4.7730827098068E-02
(PID.TID 0000.0001) %MON dynstat_wvel_max             =   2.0195497671958E+00
(PID.TID 0000.0001) %MON dynstat_wvel_min             =  -2.8708333840446E+00
(PID.TID 0000.0001) %MON dynstat_wvel_mean            =  -2.7983415968243E-18
(PID.TID 0000.0001) %MON dynstat_wvel_sd              =   9.4307171384330E-02
(PID.TID 0000.0001) %MON dynstat_wvel_del2            =   1.6206373497635E-03
(PID.TID 0000.0001) %MON dynstat_theta_max            =   5.0220266419675E+02
(PID.TID 0000.0001) %MON dynstat_theta_min            =   2.6599736763528E+02
(PID.TID 0000.0001) %MON dynstat_theta_mean           =   3.3729144243274E+02
(PID.TID 0000.0001) %MON dynstat_theta_sd             =   4.8956623194100E+01
(PID.TID 0000.0001) %MON dynstat_theta_del2           =   2.7050580949344E-02
(PID.TID 0000.0001) %MON dynstat_salt_max             =   1.7801724071937E+01
(PID.TID 0000.0001) %MON dynstat_salt_min             =  -2.1010904031959E+00
(PID.TID 0000.0001) %MON dynstat_salt_mean            =   3.2320832215808E+00
(PID.TID 0000.0001) %MON dynstat_salt_sd              =   3.9630862458188E+00
(PID.TID 0000.0001) %MON dynstat_salt_del2            =   1.1979516964600E-02
(PID.TID 0000.0001) %MON trAdv_CFL_u_max              =   5.7780118535520E-01
(PID.TID 0000.0001) %MON trAdv_CFL_v_max              =   3.6204539743928E-01
(PID.TID 0000.0001) %MON trAdv_CFL_w_max              =   2.1884097303505E-01
(PID.TID 0000.0001) %MON advcfl_uvel_max              =   5.0253631181383E-01
(PID.TID 0000.0001) %MON advcfl_vvel_max              =   4.5005529130333E-01
(PID.TID 0000.0001) %MON advcfl_wvel_max              =   1.3780000243414E-01
(PID.TID 0000.0001) %MON advcfl_W_hf_max              =   1.7225000304268E-01
(PID.TID 0000.0001) %MON am_eta_mean                  =   2.4520715030350E+10
(PID.TID 0000.0001) %MON am_uZo_mean                  =   3.1470832967114E+11
(PID.TID 0000.0001) %MON am_tot_mean                  =   3.3922904470149E+11
(PID.TID 0000.0001) %MON pe_b_mean                    =   3.9829815586789E+00
(PID.TID 0000.0001) %MON ke_max                       =   5.4058856919489E+03
(PID.TID 0000.0001) %MON ke_mean                      =   1.5820886436052E+02
(PID.TID 0000.0001) %MON ke_vol                       =   5.0995454902520E+19
(PID.TID 0000.0001) %MON vort_r_min                   =  -4.8354412546699E-04
(PID.TID 0000.0001) %MON vort_r_max                   =   1.7746428082775E-04
(PID.TID 0000.0001) %MON vort_a_mean                  =   1.9609590735322E-20
(PID.TID 0000.0001) %MON vort_a_sd                    =   8.8876749493923E-05
(PID.TID 0000.0001) %MON vort_p_mean                  =   1.9609590735322E-20
(PID.TID 0000.0001) %MON vort_p_sd                    =   8.8876749493923E-05
(PID.TID 0000.0001) %MON surfExpan_theta_mean         =  -3.2336594946443E-03
(PID.TID 0000.0001) %MON surfExpan_salt_mean          =  -1.6406528245747E-03
(PID.TID 0000.0001) %MON surfExpan_Heat_mean          =  -3.2613267140978E-01
(PID.TID 0000.0001) %MON En_Budget_T2PE_mean          =   1.8641166039916E+00
(PID.TID 0000.0001) // =======================================================
(PID.TID 0000.0001) // End MONITOR dynamic field statistics
(PID.TID 0000.0001) // =======================================================
(PID.TID 0000.0001) // =======================================================
(PID.TID 0000.0001) // Begin MONITOR Land statistics
(PID.TID 0000.0001) // =======================================================
(PID.TID 0000.0001) %MON land_time_sec                =   6.6749186280000E+11
(PID.TID 0000.0001) %MON land_SnwH_ave_G              =   3.8451073248785E-03
(PID.TID 0000.0001) %MON land_SnwH_ave_S              =   0.0000000000000E+00
(PID.TID 0000.0001) %MON land_SnwH_ave_T              =   0.0000000000000E+00
(PID.TID 0000.0001) %MON land_SnwH_ave_N              =   7.2012472089118E-03
(PID.TID 0000.0001) %MON land_SnwH_max_S              =   0.0000000000000E+00
(PID.TID 0000.0001) %MON land_SnwH_max_T              =   0.0000000000000E+00
(PID.TID 0000.0001) %MON land_SnwH_max_N              =   7.3268595112088E-02
(PID.TID 0000.0001) %MON land_Tsrf_ave_G              =   1.4857144578613E+01
(PID.TID 0000.0001) %MON land_Tsrf_ave_S              =   3.6550501006654E+01
(PID.TID 0000.0001) %MON land_Tsrf_ave_T              =   2.8279918716477E+01
(PID.TID 0000.0001) %MON land_Tsrf_ave_N              =   1.7786957934814E+00
(PID.TID 0000.0001) %MON land_Tsrf_min_S              =   3.1426826499902E+01
(PID.TID 0000.0001) %MON land_Tsrf_min_T              =   2.6119913456997E+01
(PID.TID 0000.0001) %MON land_Tsrf_min_N              =  -1.9924757240831E+01
(PID.TID 0000.0001) %MON land_Tsrf_max_S              =   4.1493246936005E+01
(PID.TID 0000.0001) %MON land_Tsrf_max_T              =   3.2011920371341E+01
(PID.TID 0000.0001) %MON land_Tsrf_max_N              =   2.8139273409830E+01
(PID.TID 0000.0001) %MON land_Tgr1_ave_G              =   1.4878911097595E+01
(PID.TID 0000.0001) %MON land_Tgr1_ave_S              =   3.6550501006654E+01
(PID.TID 0000.0001) %MON land_Tgr1_ave_T              =   2.8279918716477E+01
(PID.TID 0000.0001) %MON land_Tgr1_ave_N              =   1.8194608673318E+00
(PID.TID 0000.0001) %MON land_Tgr1_min_S              =   3.1426826499902E+01
(PID.TID 0000.0001) %MON land_Tgr1_min_T              =   2.6119913456997E+01
(PID.TID 0000.0001) %MON land_Tgr1_min_N              =  -1.9898542418087E+01
(PID.TID 0000.0001) %MON land_Tgr1_max_S              =   4.1493246936005E+01
(PID.TID 0000.0001) %MON land_Tgr1_max_T              =   3.2011920371341E+01
(PID.TID 0000.0001) %MON land_Tgr1_max_N              =   2.8139273409830E+01
(PID.TID 0000.0001) %MON land_Tgr2_ave_G              =   1.8544278865041E+01
(PID.TID 0000.0001) %MON land_Tgr2_ave_S              =   2.5514038327988E+01
(PID.TID 0000.0001) %MON land_Tgr2_ave_T              =   2.8640077423585E+01
(PID.TID 0000.0001) %MON land_Tgr2_ave_N              =   1.0247345945617E+01
(PID.TID 0000.0001) %MON land_Tgr2_min_S              =   2.1482975590799E+01
(PID.TID 0000.0001) %MON land_Tgr2_min_T              =   2.7869914246483E+01
(PID.TID 0000.0001) %MON land_Tgr2_min_N              =  -3.5033091350689E+00
(PID.TID 0000.0001) %MON land_Tgr2_max_S              =   2.8432906973256E+01
(PID.TID 0000.0001) %MON land_Tgr2_max_T              =   3.0667518845213E+01
(PID.TID 0000.0001) %MON land_Tgr2_max_N              =   3.1149666463903E+01
(PID.TID 0000.0001) %MON land_TotEnerg_G              =   1.0747581323632E+21
(PID.TID 0000.0001) %MON land_TotEnerg_S              =   1.3503239322911E+20
(PID.TID 0000.0001) %MON land_TotEnerg_T              =   9.7289976582514E+20
(PID.TID 0000.0001) %MON land_TotEnerg_N              =  -3.3174026691027E+19
(PID.TID 0000.0001) %MON land_grdW_ave_G              =   7.0715590979982E-01
(PID.TID 0000.0001) %MON land_grdW_ave_S              =   1.2698420203765E-01
(PID.TID 0000.0001) %MON land_grdW_ave_T              =   7.6779579681674E-01
(PID.TID 0000.0001) %MON land_grdW_ave_N              =   7.5980250931642E-01
(PID.TID 0000.0001) %MON land_grdW_min_S              =   1.4657384255038E-02
(PID.TID 0000.0001) %MON land_grdW_min_T              =   1.3476824891377E-01
(PID.TID 0000.0001) %MON land_grdW_min_N              =   4.4243045472067E-02
(PID.TID 0000.0001) // =======================================================
(PID.TID 0000.0001) // End MONITOR Land statistics
(PID.TID 0000.0001) // =======================================================
(PID.TID 0000.0001) // =======================================================
(PID.TID 0000.0001) // Begin MONITOR Therm.SeaIce statistics
(PID.TID 0000.0001) // =======================================================
(PID.TID 0000.0001) %MON thSI_time_sec                =   6.6749186280000E+11
(PID.TID 0000.0001) %MON thSI_Ice_Area_G              =   4.9753440446026E+13
(PID.TID 0000.0001) %MON thSI_Ice_Area_S              =   4.9753440446026E+13
(PID.TID 0000.0001) %MON thSI_Ice_Area_N              =   0.0000000000000E+00
(PID.TID 0000.0001) %MON thSI_IceH_ave_G              =   9.9212909191929E+00
(PID.TID 0000.0001) %MON thSI_IceH_ave_S              =   9.9212909191929E+00
(PID.TID 0000.0001) %MON thSI_IceH_ave_N              =   0.0000000000000E+00
(PID.TID 0000.0001) %MON thSI_IceH_max_S              =   2.2476361061707E+01
(PID.TID 0000.0001) %MON thSI_IceH_max_N              =   0.0000000000000E+00
(PID.TID 0000.0001) %MON thSI_SnwH_ave_G              =   4.7930844438934E-02
(PID.TID 0000.0001) %MON thSI_SnwH_ave_S              =   4.7930844438934E-02
(PID.TID 0000.0001) %MON thSI_SnwH_ave_N              =   0.0000000000000E+00
(PID.TID 0000.0001) %MON thSI_SnwH_max_S              =   3.1927426504521E-01
(PID.TID 0000.0001) %MON thSI_SnwH_max_N              =   0.0000000000000E+00
(PID.TID 0000.0001) %MON thSI_Tsrf_ave_G              =  -8.6963084363693E-01
(PID.TID 0000.0001) %MON thSI_Tsrf_ave_S              =  -8.6963084363693E-01
(PID.TID 0000.0001) %MON thSI_Tsrf_ave_N              =   0.0000000000000E+00
(PID.TID 0000.0001) %MON thSI_Tsrf_min_S              =  -8.7984200159703E+00
(PID.TID 0000.0001) %MON thSI_Tsrf_min_N              =   0.0000000000000E+00
(PID.TID 0000.0001) %MON thSI_Tsrf_max_S              =   0.0000000000000E+00
(PID.TID 0000.0001) %MON thSI_Tsrf_max_N              =   0.0000000000000E+00
(PID.TID 0000.0001) %MON thSI_Tic1_ave_G              =  -1.4093045623119E+01
(PID.TID 0000.0001) %MON thSI_Tic1_ave_S              =  -1.4093045623119E+01
(PID.TID 0000.0001) %MON thSI_Tic1_ave_N              =   0.0000000000000E+00
(PID.TID 0000.0001) %MON thSI_Tic1_min_S              =  -1.9919831861068E+01
(PID.TID 0000.0001) %MON thSI_Tic1_min_N              =   0.0000000000000E+00
(PID.TID 0000.0001) %MON thSI_Tic1_max_S              =  -1.5032051907933E-01
(PID.TID 0000.0001) %MON thSI_Tic1_max_N              =   0.0000000000000E+00
(PID.TID 0000.0001) %MON thSI_Tic2_ave_G              =  -6.1604366711408E+00
(PID.TID 0000.0001) %MON thSI_Tic2_ave_S              =  -6.1604366711408E+00
(PID.TID 0000.0001) %MON thSI_Tic2_ave_N              =   0.0000000000000E+00
(PID.TID 0000.0001) %MON thSI_Tic2_min_S              =  -7.6251667979074E+00
(PID.TID 0000.0001) %MON thSI_Tic2_min_N              =   0.0000000000000E+00
(PID.TID 0000.0001) %MON thSI_Tic2_max_S              =  -8.3331336410308E-03
(PID.TID 0000.0001) %MON thSI_Tic2_max_N              =   0.0000000000000E+00
(PID.TID 0000.0001) %MON thSI_TotEnerg_G              =  -1.5751483378188E+23
(PID.TID 0000.0001) // =======================================================
(PID.TID 0000.0001) // End MONITOR Therm.SeaIce statistics
(PID.TID 0000.0001) // =======================================================
 Compute Stats, Diag. #    187  SI_Fract  vol(   0 ): 5.100E+14  Parms: SM P    M1      
 Compute Stats, Diag. #    188  SI_Thick  vol(   0 ): 4.975E+13  Parms: SM PC   M1      
    use Counter Mate  #    187  SI_Fract  vol(   0 ): 5.100E+14 integral 4.975E+13
 Compute Stats, Diag. #    273  aim_pCO2  vol(   0 ): 5.100E+14  Parms: SM P    L1      
 Compute Stats, Diag. #    279  CPL_fCO2  vol(   0 ): 5.100E+14  Parms: SM      M1      
 Compute Stats, Diag. #    275  CPL_MxlD  vol(   0 ): 5.100E+14  Parms: SM      M1      
 Compute Stats, Diag. #    276  CPL_SST   vol(   0 ): 5.100E+14  Parms: SM      M1      
 Compute Stats, Diag. #    277  CPL_SSS   vol(   0 ): 5.100E+14  Parms: SM      M1      
 Compute Stats, Diag. #    278  CPL_Vel2  vol(   0 ): 5.100E+14  Parms: SM      M1      
 cg2d: Sum(rhs),rhsMax =  -2.18648347072303E-05  5.22812667361417E+03
(PID.TID 0000.0001)      cg2d_init_res =   9.59540719332725E+02
(PID.TID 0000.0001)      cg2d_iters(min,last) =      -1      23
(PID.TID 0000.0001)      cg2d_last_res =   3.94128448635848E-11
 cg3d: Sum(rhs),rhsMax =   3.44091942439118E-13  6.02207581621330E+00
(PID.TID 0000.0001)      cg3d_init_res =   9.41689851895551E-01
(PID.TID 0000.0001)      cg3d_iters (last) =                 11
(PID.TID 0000.0001)      cg3d_last_res =   8.69822933562222E-05
(PID.TID 0000.0001) // =======================================================
(PID.TID 0000.0001) // Begin MONITOR dynamic field statistics
(PID.TID 0000.0001) // =======================================================
(PID.TID 0000.0001) %MON time_tsnumber                =             556243220
(PID.TID 0000.0001) %MON time_secondsf                =   6.6749186400000E+11
(PID.TID 0000.0001) %MON dynstat_eta_max              =   2.2318476885255E+03
(PID.TID 0000.0001) %MON dynstat_eta_min              =  -4.4242542677441E+03
(PID.TID 0000.0001) %MON dynstat_eta_mean             =   6.2209231212157E-09
(PID.TID 0000.0001) %MON dynstat_eta_sd               =   9.7926079536166E+02
(PID.TID 0000.0001) %MON dynstat_eta_del2             =   4.3792445628730E+00
(PID.TID 0000.0001) %MON dynstat_uvel_max             =   7.5628812221670E+01
(PID.TID 0000.0001) %MON dynstat_uvel_min             =  -5.9796689454761E+01
(PID.TID 0000.0001) %MON dynstat_uvel_mean            =   1.8402037683551E+00
(PID.TID 0000.0001) %MON dynstat_uvel_sd              =   1.2398674986602E+01
(PID.TID 0000.0001) %MON dynstat_uvel_del2            =   4.8673879273882E-02
(PID.TID 0000.0001) %MON dynstat_vvel_max             =   1.0480184806860E+02
(PID.TID 0000.0001) %MON dynstat_vvel_min             =  -5.1949878450409E+01
(PID.TID 0000.0001) %MON dynstat_vvel_mean            =   1.7901145365007E+00
(PID.TID 0000.0001) %MON dynstat_vvel_sd              =   1.2500784332816E+01
(PID.TID 0000.0001) %MON dynstat_vvel_del2            =   4.7783067634721E-02
(PID.TID 0000.0001) %MON dynstat_wvel_max             =   1.6293447625191E+00
(PID.TID 0000.0001) %MON dynstat_wvel_min             =  -2.4112224268834E+00
(PID.TID 0000.0001) %MON dynstat_wvel_mean            =  -8.4798230206798E-20
(PID.TID 0000.0001) %MON dynstat_wvel_sd              =   9.4146530524599E-02
(PID.TID 0000.0001) %MON dynstat_wvel_del2            =   1.5838778914551E-03
(PID.TID 0000.0001) %MON dynstat_theta_max            =   5.0221066649061E+02
(PID.TID 0000.0001) %MON dynstat_theta_min            =   2.6598209503114E+02
(PID.TID 0000.0001) %MON dynstat_theta_mean           =   3.3729091853217E+02
(PID.TID 0000.0001) %MON dynstat_theta_sd             =   4.8956872482636E+01
(PID.TID 0000.0001) %MON dynstat_theta_del2           =   2.7064755133252E-02
(PID.TID 0000.0001) %MON dynstat_salt_max             =   1.7795977176025E+01
(PID.TID 0000.0001) %MON dynstat_salt_min             =  -2.1391701451761E+00
(PID.TID 0000.0001) %MON dynstat_salt_mean            =   3.2320310784478E+00
(PID.TID 0000.0001) %MON dynstat_salt_sd              =   3.9630347908391E+00
(PID.TID 0000.0001) %MON dynstat_salt_del2            =   1.1976816872501E-02
(PID.TID 0000.0001) %MON trAdv_CFL_u_max              =   5.6626005791967E-01
(PID.TID 0000.0001) %MON trAdv_CFL_v_max              =   3.7154145853829E-01
(PID.TID 0000.0001) %MON trAdv_CFL_w_max              =   1.9561532604961E-01
(PID.TID 0000.0001) %MON advcfl_uvel_max              =   5.1233100416468E-01
(PID.TID 0000.0001) %MON advcfl_vvel_max              =   4.5731872531237E-01
(PID.TID 0000.0001) %MON advcfl_wvel_max              =   1.1573867649041E-01
(PID.TID 0000.0001) %MON advcfl_W_hf_max              =   1.4467334561301E-01
(PID.TID 0000.0001) %MON am_eta_mean                  =   2.4529680080428E+10
(PID.TID 0000.0001) %MON am_uZo_mean                  =   3.1470787938765E+11
(PID.TID 0000.0001) %MON am_tot_mean                  =   3.3923755946808E+11
(PID.TID 0000.0001) %MON pe_b_mean                    =   3.9831894788529E+00
(PID.TID 0000.0001) %MON ke_max                       =   5.4051241939186E+03
(PID.TID 0000.0001) %MON ke_mean                      =   1.5822340761968E+02
(PID.TID 0000.0001) %MON ke_vol                       =   5.0995454902520E+19
(PID.TID 0000.0001) %MON vort_r_min                   =  -4.4896341704325E-04
(PID.TID 0000.0001) %MON vort_r_max                   =   1.7018549509130E-04
(PID.TID 0000.0001) %MON vort_a_mean                  =  -5.8828772205966E-20
(PID.TID 0000.0001) %MON vort_a_sd                    =   8.8879144430743E-05
(PID.TID 0000.0001) %MON vort_p_mean                  =  -5.8828772205966E-20
(PID.TID 0000.0001) %MON vort_p_sd                    =   8.8879144430743E-05
(PID.TID 0000.0001) %MON surfExpan_theta_mean         =  -3.2639498848110E-03
(PID.TID 0000.0001) %MON surfExpan_salt_mean          =  -1.6467223183369E-03
(PID.TID 0000.0001) %MON surfExpan_Heat_mean          =  -3.2918762691126E-01
(PID.TID 0000.0001) %MON En_Budget_T2PE_mean          =   1.8664566972517E+00
(PID.TID 0000.0001) // =======================================================
(PID.TID 0000.0001) // End MONITOR dynamic field statistics
(PID.TID 0000.0001) // =======================================================
(PID.TID 0000.0001) // =======================================================
(PID.TID 0000.0001) // Begin MONITOR Land statistics
(PID.TID 0000.0001) // =======================================================
(PID.TID 0000.0001) %MON land_time_sec                =   6.6749186400000E+11
(PID.TID 0000.0001) %MON land_SnwH_ave_G              =   3.8475571288488E-03
(PID.TID 0000.0001) %MON land_SnwH_ave_S              =   0.0000000000000E+00
(PID.TID 0000.0001) %MON land_SnwH_ave_T              =   0.0000000000000E+00
(PID.TID 0000.0001) %MON land_SnwH_ave_N              =   7.2058352847476E-03
(PID.TID 0000.0001) %MON land_SnwH_max_S              =   0.0000000000000E+00
(PID.TID 0000.0001) %MON land_SnwH_max_T              =   0.0000000000000E+00
(PID.TID 0000.0001) %MON land_SnwH_max_N              =   7.3268500620259E-02
(PID.TID 0000.0001) %MON land_Tsrf_ave_G              =   1.4866123832176E+01
(PID.TID 0000.0001) %MON land_Tsrf_ave_S              =   3.6580150439163E+01
(PID.TID 0000.0001) %MON land_Tsrf_ave_T              =   2.8287427204019E+01
(PID.TID 0000.0001) %MON land_Tsrf_ave_N              =   1.7853110111275E+00
(PID.TID 0000.0001) %MON land_Tsrf_min_S              =   3.1423948288002E+01
(PID.TID 0000.0001) %MON land_Tsrf_min_T              =   2.6134499913975E+01
(PID.TID 0000.0001) %MON land_Tsrf_min_N              =  -1.9922133352493E+01
(PID.TID 0000.0001) %MON land_Tsrf_max_S              =   4.1542639794545E+01
(PID.TID 0000.0001) %MON land_Tsrf_max_T              =   3.2076729760923E+01
(PID.TID 0000.0001) %MON land_Tsrf_max_N              =   2.8083526855921E+01
(PID.TID 0000.0001) %MON land_Tgr1_ave_G              =   1.4887169194783E+01
(PID.TID 0000.0001) %MON land_Tgr1_ave_S              =   3.6580150439163E+01
(PID.TID 0000.0001) %MON land_Tgr1_ave_T              =   2.8287427204019E+01
(PID.TID 0000.0001) %MON land_Tgr1_ave_N              =   1.8247254788984E+00
(PID.TID 0000.0001) %MON land_Tgr1_min_S              =   3.1423948288002E+01
(PID.TID 0000.0001) %MON land_Tgr1_min_T              =   2.6134499913975E+01
(PID.TID 0000.0001) %MON land_Tgr1_min_N              =  -1.9895821370175E+01
(PID.TID 0000.0001) %MON land_Tgr1_max_S              =   4.1542639794545E+01
(PID.TID 0000.0001) %MON land_Tgr1_max_T              =   3.2076729760923E+01
(PID.TID 0000.0001) %MON land_Tgr1_max_N              =   2.8083526855921E+01
(PID.TID 0000.0001) %MON land_Tgr2_ave_G              =   1.8544199144777E+01
(PID.TID 0000.0001) %MON land_Tgr2_ave_S              =   2.5514614915458E+01
(PID.TID 0000.0001) %MON land_Tgr2_ave_T              =   2.8640063460209E+01
(PID.TID 0000.0001) %MON land_Tgr2_ave_N              =   1.0247111535939E+01
(PID.TID 0000.0001) %MON land_Tgr2_min_S              =   2.1483672307817E+01
(PID.TID 0000.0001) %MON land_Tgr2_min_T              =   2.7869924091689E+01
(PID.TID 0000.0001) %MON land_Tgr2_min_N              =  -3.5037156085694E+00
(PID.TID 0000.0001) %MON land_Tgr2_max_S              =   2.8433358366187E+01
(PID.TID 0000.0001) %MON land_Tgr2_max_T              =   3.0667428852139E+01
(PID.TID 0000.0001) %MON land_Tgr2_max_N              =   3.1149521519011E+01
(PID.TID 0000.0001) %MON land_TotEnerg_G              =   1.0747530392270E+21
(PID.TID 0000.0001) %MON land_TotEnerg_S              =   1.3503926462925E+20
(PID.TID 0000.0001) %MON land_TotEnerg_T              =   9.7289769058309E+20
(PID.TID 0000.0001) %MON land_TotEnerg_N              =  -3.3183915985374E+19
(PID.TID 0000.0001) %MON land_grdW_ave_G              =   7.0715016393938E-01
(PID.TID 0000.0001) %MON land_grdW_ave_S              =   1.2698740373431E-01
(PID.TID 0000.0001) %MON land_grdW_ave_T              =   7.6778103927512E-01
(PID.TID 0000.0001) %MON land_grdW_ave_N              =   7.5980167033173E-01
(PID.TID 0000.0001) %MON land_grdW_min_S              =   1.4596286394943E-02
(PID.TID 0000.0001) %MON land_grdW_min_T              =   1.3549145162196E-01
(PID.TID 0000.0001) %MON land_grdW_min_N              =   4.4194463861927E-02
(PID.TID 0000.0001) // =======================================================
(PID.TID 0000.0001) // End MONITOR Land statistics
(PID.TID 0000.0001) // =======================================================
(PID.TID 0000.0001) // =======================================================
(PID.TID 0000.0001) // Begin MONITOR Therm.SeaIce statistics
(PID.TID 0000.0001) // =======================================================
(PID.TID 0000.0001) %MON thSI_time_sec                =   6.6749186400000E+11
(PID.TID 0000.0001) %MON thSI_Ice_Area_G              =   4.9751957572413E+13
(PID.TID 0000.0001) %MON thSI_Ice_Area_S              =   4.9751957572413E+13
(PID.TID 0000.0001) %MON thSI_Ice_Area_N              =   0.0000000000000E+00
(PID.TID 0000.0001) %MON thSI_IceH_ave_G              =   9.9215056610328E+00
(PID.TID 0000.0001) %MON thSI_IceH_ave_S              =   9.9215056610328E+00
(PID.TID 0000.0001) %MON thSI_IceH_ave_N              =   0.0000000000000E+00
(PID.TID 0000.0001) %MON thSI_IceH_max_S              =   2.2476366522803E+01
(PID.TID 0000.0001) %MON thSI_IceH_max_N              =   0.0000000000000E+00
(PID.TID 0000.0001) %MON thSI_SnwH_ave_G              =   4.7853179925257E-02
(PID.TID 0000.0001) %MON thSI_SnwH_ave_S              =   4.7853179925257E-02
(PID.TID 0000.0001) %MON thSI_SnwH_ave_N              =   0.0000000000000E+00
(PID.TID 0000.0001) %MON thSI_SnwH_max_S              =   3.1907025763190E-01
(PID.TID 0000.0001) %MON thSI_SnwH_max_N              =   0.0000000000000E+00
(PID.TID 0000.0001) %MON thSI_Tsrf_ave_G              =  -8.7109882246558E-01
(PID.TID 0000.0001) %MON thSI_Tsrf_ave_S              =  -8.7109882246558E-01
(PID.TID 0000.0001) %MON thSI_Tsrf_ave_N              =   0.0000000000000E+00
(PID.TID 0000.0001) %MON thSI_Tsrf_min_S              =  -8.7979324670668E+00
(PID.TID 0000.0001) %MON thSI_Tsrf_min_N              =   0.0000000000000E+00
(PID.TID 0000.0001) %MON thSI_Tsrf_max_S              =   0.0000000000000E+00
(PID.TID 0000.0001) %MON thSI_Tsrf_max_N              =   0.0000000000000E+00
(PID.TID 0000.0001) %MON thSI_Tic1_ave_G              =  -1.4092332144405E+01
(PID.TID 0000.0001) %MON thSI_Tic1_ave_S              =  -1.4092332144405E+01
(PID.TID 0000.0001) %MON thSI_Tic1_ave_N              =   0.0000000000000E+00
(PID.TID 0000.0001) %MON thSI_Tic1_min_S              =  -1.9919384101644E+01
(PID.TID 0000.0001) %MON thSI_Tic1_min_N              =   0.0000000000000E+00
(PID.TID 0000.0001) %MON thSI_Tic1_max_S              =  -1.5084641050867E-01
(PID.TID 0000.0001) %MON thSI_Tic1_max_N              =   0.0000000000000E+00
(PID.TID 0000.0001) %MON thSI_Tic2_ave_G              =  -6.1603813196441E+00
(PID.TID 0000.0001) %MON thSI_Tic2_ave_S              =  -6.1603813196441E+00
(PID.TID 0000.0001) %MON thSI_Tic2_ave_N              =   0.0000000000000E+00
(PID.TID 0000.0001) %MON thSI_Tic2_min_S              =  -7.6251688520870E+00
(PID.TID 0000.0001) %MON thSI_Tic2_min_N              =   0.0000000000000E+00
(PID.TID 0000.0001) %MON thSI_Tic2_max_S              =  -1.5816070943120E-02
(PID.TID 0000.0001) %MON thSI_Tic2_max_N              =   0.0000000000000E+00
(PID.TID 0000.0001) %MON thSI_TotEnerg_G              =  -1.5751261779128E+23
(PID.TID 0000.0001) // =======================================================
(PID.TID 0000.0001) // End MONITOR Therm.SeaIce statistics
(PID.TID 0000.0001) // =======================================================
 cg2d: Sum(rhs),rhsMax =  -2.18655331991613E-05  5.23946531680255E+03
(PID.TID 0000.0001)      cg2d_init_res =   9.74173276771882E+02
(PID.TID 0000.0001)      cg2d_iters(min,last) =      -1      23
(PID.TID 0000.0001)      cg2d_last_res =   3.86390804130817E-11
 cg3d: Sum(rhs),rhsMax =   3.12467066110322E-13  7.46472109392278E+00
(PID.TID 0000.0001)      cg3d_init_res =   7.44934864731869E-01
(PID.TID 0000.0001)      cg3d_iters (last) =                 11
(PID.TID 0000.0001)      cg3d_last_res =   6.87344682902024E-05
(PID.TID 0000.0001) // =======================================================
(PID.TID 0000.0001) // Begin MONITOR dynamic field statistics
(PID.TID 0000.0001) // =======================================================
(PID.TID 0000.0001) %MON time_tsnumber                =             556243221
(PID.TID 0000.0001) %MON time_secondsf                =   6.6749186520000E+11
(PID.TID 0000.0001) %MON dynstat_eta_max              =   2.2311850571872E+03
(PID.TID 0000.0001) %MON dynstat_eta_min              =  -4.4295665578902E+03
(PID.TID 0000.0001) %MON dynstat_eta_mean             =   6.2208460131674E-09
(PID.TID 0000.0001) %MON dynstat_eta_sd               =   9.7927570950175E+02
(PID.TID 0000.0001) %MON dynstat_eta_del2             =   4.3818591955048E+00
(PID.TID 0000.0001) %MON dynstat_uvel_max             =   7.6458181220340E+01
(PID.TID 0000.0001) %MON dynstat_uvel_min             =  -5.9784600289715E+01
(PID.TID 0000.0001) %MON dynstat_uvel_mean            =   1.8406249831462E+00
(PID.TID 0000.0001) %MON dynstat_uvel_sd              =   1.2397749050128E+01
(PID.TID 0000.0001) %MON dynstat_uvel_del2            =   4.8758789273532E-02
(PID.TID 0000.0001) %MON dynstat_vvel_max             =   1.0484938116656E+02
(PID.TID 0000.0001) %MON dynstat_vvel_min             =  -5.1897338591632E+01
(PID.TID 0000.0001) %MON dynstat_vvel_mean            =   1.7898891222126E+00
(PID.TID 0000.0001) %MON dynstat_vvel_sd              =   1.2502871389207E+01
(PID.TID 0000.0001) %MON dynstat_vvel_del2            =   4.7857060842051E-02
(PID.TID 0000.0001) %MON dynstat_wvel_max             =   1.3726832921599E+00
(PID.TID 0000.0001) %MON dynstat_wvel_min             =  -1.9113663978409E+00
(PID.TID 0000.0001) %MON dynstat_wvel_mean            =   0.0000000000000E+00
(PID.TID 0000.0001) %MON dynstat_wvel_sd              =   9.3977273468735E-02
(PID.TID 0000.0001) %MON dynstat_wvel_del2            =   1.5461492243324E-03
(PID.TID 0000.0001) %MON dynstat_theta_max            =   5.0221793731116E+02
(PID.TID 0000.0001) %MON dynstat_theta_min            =   2.6596693867661E+02
(PID.TID 0000.0001) %MON dynstat_theta_mean           =   3.3729041664196E+02
(PID.TID 0000.0001) %MON dynstat_theta_sd             =   4.8957107448311E+01
(PID.TID 0000.0001) %MON dynstat_theta_del2           =   2.7074717560207E-02
(PID.TID 0000.0001) %MON dynstat_salt_max             =   1.7791370912699E+01
(PID.TID 0000.0001) %MON dynstat_salt_min             =  -2.1330796384472E+00
(PID.TID 0000.0001) %MON dynstat_salt_mean            =   3.2319682554652E+00
(PID.TID 0000.0001) %MON dynstat_salt_sd              =   3.9629817567499E+00
(PID.TID 0000.0001) %MON dynstat_salt_del2            =   1.1972748422767E-02
(PID.TID 0000.0001) %MON trAdv_CFL_u_max              =   5.5418390525148E-01
(PID.TID 0000.0001) %MON trAdv_CFL_v_max              =   3.7878299352078E-01
(PID.TID 0000.0001) %MON trAdv_CFL_w_max              =   1.6162268757610E-01
(PID.TID 0000.0001) %MON advcfl_uvel_max              =   5.2874532652480E-01
(PID.TID 0000.0001) %MON advcfl_vvel_max              =   4.6290245829019E-01
(PID.TID 0000.0001) %MON advcfl_wvel_max              =   9.1745587096361E-02
(PID.TID 0000.0001) %MON advcfl_W_hf_max              =   1.5227066377289E-01
(PID.TID 0000.0001) %MON am_eta_mean                  =   2.4538157006525E+10
(PID.TID 0000.0001) %MON am_uZo_mean                  =   3.1470772200487E+11
(PID.TID 0000.0001) %MON am_tot_mean                  =   3.3924587901139E+11
(PID.TID 0000.0001) %MON pe_b_mean                    =   3.9833108077136E+00
(PID.TID 0000.0001) %MON ke_max                       =   5.4018564920631E+03
(PID.TID 0000.0001) %MON ke_mean                      =   1.5823812032425E+02
(PID.TID 0000.0001) %MON ke_vol                       =   5.0995454902520E+19
(PID.TID 0000.0001) %MON vort_r_min                   =  -3.8719263366987E-04
(PID.TID 0000.0001) %MON vort_r_max                   =   1.6154186053323E-04
(PID.TID 0000.0001) %MON vort_a_mean                  =  -7.5987164099373E-20
(PID.TID 0000.0001) %MON vort_a_sd                    =   8.8880806975106E-05
(PID.TID 0000.0001) %MON vort_p_mean                  =  -7.5987164099373E-20
(PID.TID 0000.0001) %MON vort_p_sd                    =   8.8880806975106E-05
(PID.TID 0000.0001) %MON surfExpan_theta_mean         =  -3.3079026471169E-03
(PID.TID 0000.0001) %MON surfExpan_salt_mean          =  -1.6735999150204E-03
(PID.TID 0000.0001) %MON surfExpan_Heat_mean          =  -3.3362050916445E-01
(PID.TID 0000.0001) %MON En_Budget_T2PE_mean          =   1.8698210336888E+00
(PID.TID 0000.0001) // =======================================================
(PID.TID 0000.0001) // End MONITOR dynamic field statistics
(PID.TID 0000.0001) // =======================================================
(PID.TID 0000.0001) // =======================================================
(PID.TID 0000.0001) // Begin MONITOR Land statistics
(PID.TID 0000.0001) // =======================================================
(PID.TID 0000.0001) %MON land_time_sec                =   6.6749186520000E+11
(PID.TID 0000.0001) %MON land_SnwH_ave_G              =   3.8500224051130E-03
(PID.TID 0000.0001) %MON land_SnwH_ave_S              =   0.0000000000000E+00
(PID.TID 0000.0001) %MON land_SnwH_ave_T              =   0.0000000000000E+00
(PID.TID 0000.0001) %MON land_SnwH_ave_N              =   7.2104523376194E-03
(PID.TID 0000.0001) %MON land_SnwH_max_S              =   0.0000000000000E+00
(PID.TID 0000.0001) %MON land_SnwH_max_T              =   0.0000000000000E+00
(PID.TID 0000.0001) %MON land_SnwH_max_N              =   7.3268390570180E-02
(PID.TID 0000.0001) %MON land_Tsrf_ave_G              =   1.4875282453075E+01
(PID.TID 0000.0001) %MON land_Tsrf_ave_S              =   3.6608443620473E+01
(PID.TID 0000.0001) %MON land_Tsrf_ave_T              =   2.8294875993246E+01
(PID.TID 0000.0001) %MON land_Tsrf_ave_N              =   1.7925278707010E+00
(PID.TID 0000.0001) %MON land_Tsrf_min_S              =   3.1419905937550E+01
(PID.TID 0000.0001) %MON land_Tsrf_min_T              =   2.6150626177659E+01
(PID.TID 0000.0001) %MON land_Tsrf_min_N              =  -1.9919598025795E+01
(PID.TID 0000.0001) %MON land_Tsrf_max_S              =   4.1590537992839E+01
(PID.TID 0000.0001) %MON land_Tsrf_max_T              =   3.2141188921213E+01
(PID.TID 0000.0001) %MON land_Tsrf_max_N              =   2.8027767643107E+01
(PID.TID 0000.0001) %MON land_Tgr1_ave_G              =   1.4895319550488E+01
(PID.TID 0000.0001) %MON land_Tgr1_ave_S              =   3.6608443620473E+01
(PID.TID 0000.0001) %MON land_Tgr1_ave_T              =   2.8294875993246E+01
(PID.TID 0000.0001) %MON land_Tgr1_ave_N              =   1.8300540252729E+00
(PID.TID 0000.0001) %MON land_Tgr1_min_S              =   3.1419905937550E+01
(PID.TID 0000.0001) %MON land_Tgr1_min_T              =   2.6150626177659E+01
(PID.TID 0000.0001) %MON land_Tgr1_min_N              =  -1.9893195616524E+01
(PID.TID 0000.0001) %MON land_Tgr1_max_S              =   4.1590537992839E+01
(PID.TID 0000.0001) %MON land_Tgr1_max_T              =   3.2141188921213E+01
(PID.TID 0000.0001) %MON land_Tgr1_max_N              =   2.8027767643107E+01
(PID.TID 0000.0001) %MON land_Tgr2_ave_G              =   1.8544119815228E+01
(PID.TID 0000.0001) %MON land_Tgr2_ave_S              =   2.5515192924298E+01
(PID.TID 0000.0001) %MON land_Tgr2_ave_T              =   2.8640049774227E+01
(PID.TID 0000.0001) %MON land_Tgr2_ave_N              =   1.0246877427414E+01
(PID.TID 0000.0001) %MON land_Tgr2_min_S              =   2.1484367083745E+01
(PID.TID 0000.0001) %MON land_Tgr2_min_T              =   2.7869934061487E+01
(PID.TID 0000.0001) %MON land_Tgr2_min_N              =  -3.5041225797044E+00
(PID.TID 0000.0001) %MON land_Tgr2_max_S              =   2.8433811287263E+01
(PID.TID 0000.0001) %MON land_Tgr2_max_T              =   3.0667338312553E+01
(PID.TID 0000.0001) %MON land_Tgr2_max_N              =   3.1149373962630E+01
(PID.TID 0000.0001) %MON land_TotEnerg_G              =   1.0747477250995E+21
(PID.TID 0000.0001) %MON land_TotEnerg_S              =   1.3504599796685E+20
(PID.TID 0000.0001) %MON land_TotEnerg_T              =   9.7289552783856E+20
(PID.TID 0000.0001) %MON land_TotEnerg_N              =  -3.3193800705943E+19
(PID.TID 0000.0001) %MON land_grdW_ave_G              =   7.0714452058895E-01
(PID.TID 0000.0001) %MON land_grdW_ave_S              =   1.2699081969553E-01
(PID.TID 0000.0001) %MON land_grdW_ave_T              =   7.6776625293668E-01
(PID.TID 0000.0001) %MON land_grdW_ave_N              =   7.5980100842120E-01
(PID.TID 0000.0001) %MON land_grdW_min_S              =   1.4536234943958E-02
(PID.TID 0000.0001) %MON land_grdW_min_T              =   1.3626376587879E-01
(PID.TID 0000.0001) %MON land_grdW_min_N              =   4.4146758885933E-02
(PID.TID 0000.0001) // =======================================================
(PID.TID 0000.0001) // End MONITOR Land statistics
(PID.TID 0000.0001) // =======================================================
(PID.TID 0000.0001) // =======================================================
(PID.TID 0000.0001) // Begin MONITOR Therm.SeaIce statistics
(PID.TID 0000.0001) // =======================================================
(PID.TID 0000.0001) %MON thSI_time_sec                =   6.6749186520000E+11
(PID.TID 0000.0001) %MON thSI_Ice_Area_G              =   4.9750477245531E+13
(PID.TID 0000.0001) %MON thSI_Ice_Area_S              =   4.9750477245531E+13
(PID.TID 0000.0001) %MON thSI_Ice_Area_N              =   0.0000000000000E+00
(PID.TID 0000.0001) %MON thSI_IceH_ave_G              =   9.9217199289436E+00
(PID.TID 0000.0001) %MON thSI_IceH_ave_S              =   9.9217199289436E+00
(PID.TID 0000.0001) %MON thSI_IceH_ave_N              =   0.0000000000000E+00
(PID.TID 0000.0001) %MON thSI_IceH_max_S              =   2.2476371983899E+01
(PID.TID 0000.0001) %MON thSI_IceH_max_N              =   0.0000000000000E+00
(PID.TID 0000.0001) %MON thSI_SnwH_ave_G              =   4.7775575598002E-02
(PID.TID 0000.0001) %MON thSI_SnwH_ave_S              =   4.7775575598002E-02
(PID.TID 0000.0001) %MON thSI_SnwH_ave_N              =   0.0000000000000E+00
(PID.TID 0000.0001) %MON thSI_SnwH_max_S              =   3.1886552784148E-01
(PID.TID 0000.0001) %MON thSI_SnwH_max_N              =   0.0000000000000E+00
(PID.TID 0000.0001) %MON thSI_Tsrf_ave_G              =  -8.7239090252878E-01
(PID.TID 0000.0001) %MON thSI_Tsrf_ave_S              =  -8.7239090252878E-01
(PID.TID 0000.0001) %MON thSI_Tsrf_ave_N              =   0.0000000000000E+00
(PID.TID 0000.0001) %MON thSI_Tsrf_min_S              =  -8.7972162109445E+00
(PID.TID 0000.0001) %MON thSI_Tsrf_min_N              =   0.0000000000000E+00
(PID.TID 0000.0001) %MON thSI_Tsrf_max_S              =   0.0000000000000E+00
(PID.TID 0000.0001) %MON thSI_Tsrf_max_N              =   0.0000000000000E+00
(PID.TID 0000.0001) %MON thSI_Tic1_ave_G              =  -1.4091618871379E+01
(PID.TID 0000.0001) %MON thSI_Tic1_ave_S              =  -1.4091618871379E+01
(PID.TID 0000.0001) %MON thSI_Tic1_ave_N              =   0.0000000000000E+00
(PID.TID 0000.0001) %MON thSI_Tic1_min_S              =  -1.9918936277155E+01
(PID.TID 0000.0001) %MON thSI_Tic1_min_N              =   0.0000000000000E+00
(PID.TID 0000.0001) %MON thSI_Tic1_max_S              =  -1.5137911474661E-01
(PID.TID 0000.0001) %MON thSI_Tic1_max_N              =   0.0000000000000E+00
(PID.TID 0000.0001) %MON thSI_Tic2_ave_G              =  -6.1603261424843E+00
(PID.TID 0000.0001) %MON thSI_Tic2_ave_S              =  -6.1603261424843E+00
(PID.TID 0000.0001) %MON thSI_Tic2_ave_N              =   0.0000000000000E+00
(PID.TID 0000.0001) %MON thSI_Tic2_min_S              =  -7.6251709014126E+00
(PID.TID 0000.0001) %MON thSI_Tic2_min_N              =   0.0000000000000E+00
(PID.TID 0000.0001) %MON thSI_Tic2_max_S              =  -1.1035251282349E-02
(PID.TID 0000.0001) %MON thSI_Tic2_max_N              =   0.0000000000000E+00
(PID.TID 0000.0001) %MON thSI_TotEnerg_G              =  -1.5751040274006E+23
(PID.TID 0000.0001) // =======================================================
(PID.TID 0000.0001) // End MONITOR Therm.SeaIce statistics
(PID.TID 0000.0001) // =======================================================
(PID.TID 0000.0001)   Exporting atmospheric surf fluxes at iter= 556243221
(PID.TID 0000.0001)   Importing  oceanic surface fields at iter= 556243221
 cg2d: Sum(rhs),rhsMax =  -2.18645436689258E-05  5.28537260534131E+03
(PID.TID 0000.0001)      cg2d_init_res =   1.01677958394457E+03
(PID.TID 0000.0001)      cg2d_iters(min,last) =      -1      23
(PID.TID 0000.0001)      cg2d_last_res =   3.80116303402582E-11
 cg3d: Sum(rhs),rhsMax =   2.22532062221781E-13  8.22521323760063E+00
(PID.TID 0000.0001)      cg3d_init_res =   6.61886994857070E-01
(PID.TID 0000.0001)      cg3d_iters (last) =                 11
(PID.TID 0000.0001)      cg3d_last_res =   6.33499053424246E-05
(PID.TID 0000.0001) // =======================================================
(PID.TID 0000.0001) // Begin MONITOR dynamic field statistics
(PID.TID 0000.0001) // =======================================================
(PID.TID 0000.0001) %MON time_tsnumber                =             556243222
(PID.TID 0000.0001) %MON time_secondsf                =   6.6749186640000E+11
(PID.TID 0000.0001) %MON dynstat_eta_max              =   2.2304911541196E+03
(PID.TID 0000.0001) %MON dynstat_eta_min              =  -4.4347386220630E+03
(PID.TID 0000.0001) %MON dynstat_eta_mean             =   6.2208074591432E-09
(PID.TID 0000.0001) %MON dynstat_eta_sd               =   9.7927752217358E+02
(PID.TID 0000.0001) %MON dynstat_eta_del2             =   4.3843109441739E+00
(PID.TID 0000.0001) %MON dynstat_uvel_max             =   7.7005904998078E+01
(PID.TID 0000.0001) %MON dynstat_uvel_min             =  -5.9749013989563E+01
(PID.TID 0000.0001) %MON dynstat_uvel_mean            =   1.8410537649397E+00
(PID.TID 0000.0001) %MON dynstat_uvel_sd              =   1.2396786339471E+01
(PID.TID 0000.0001) %MON dynstat_uvel_del2            =   4.8816094736321E-02
(PID.TID 0000.0001) %MON dynstat_vvel_max             =   1.0484200640808E+02
(PID.TID 0000.0001) %MON dynstat_vvel_min             =  -5.1831663493494E+01
(PID.TID 0000.0001) %MON dynstat_vvel_mean            =   1.7896616701361E+00
(PID.TID 0000.0001) %MON dynstat_vvel_sd              =   1.2505015817328E+01
(PID.TID 0000.0001) %MON dynstat_vvel_del2            =   4.7960058640830E-02
(PID.TID 0000.0001) %MON dynstat_wvel_max             =   1.4347109249821E+00
(PID.TID 0000.0001) %MON dynstat_wvel_min             =  -1.8187333105001E+00
(PID.TID 0000.0001) %MON dynstat_wvel_mean            =   5.9358761144759E-19
(PID.TID 0000.0001) %MON dynstat_wvel_sd              =   9.3862723397569E-02
(PID.TID 0000.0001) %MON dynstat_wvel_del2            =   1.5207120279192E-03
(PID.TID 0000.0001) %MON dynstat_theta_max            =   5.0222446438993E+02
(PID.TID 0000.0001) %MON dynstat_theta_min            =   2.6595187302515E+02
(PID.TID 0000.0001) %MON dynstat_theta_mean           =   3.3728984447866E+02
(PID.TID 0000.0001) %MON dynstat_theta_sd             =   4.8957336422842E+01
(PID.TID 0000.0001) %MON dynstat_theta_del2           =   2.7084567611844E-02
(PID.TID 0000.0001) %MON dynstat_salt_max             =   1.7787018570223E+01
(PID.TID 0000.0001) %MON dynstat_salt_min             =  -2.0826084730933E+00
(PID.TID 0000.0001) %MON dynstat_salt_mean            =   3.2319303977351E+00
(PID.TID 0000.0001) %MON dynstat_salt_sd              =   3.9629726935019E+00
(PID.TID 0000.0001) %MON dynstat_salt_del2            =   1.1969436840624E-02
(PID.TID 0000.0001) %MON trAdv_CFL_u_max              =   5.4236751278605E-01
(PID.TID 0000.0001) %MON trAdv_CFL_v_max              =   3.9091863651260E-01
(PID.TID 0000.0001) %MON trAdv_CFL_w_max              =   1.5227066377289E-01
(PID.TID 0000.0001) %MON advcfl_uvel_max              =   5.4499627690806E-01
(PID.TID 0000.0001) %MON advcfl_vvel_max              =   4.6659651926176E-01
(PID.TID 0000.0001) %MON advcfl_wvel_max              =   9.9470515233322E-02
(PID.TID 0000.0001) %MON advcfl_W_hf_max              =   1.7407340165831E-01
(PID.TID 0000.0001) %MON am_eta_mean                  =   2.4545992680663E+10
(PID.TID 0000.0001) %MON am_uZo_mean                  =   3.1470802104623E+11
(PID.TID 0000.0001) %MON am_tot_mean                  =   3.3925401372689E+11
(PID.TID 0000.0001) %MON pe_b_mean                    =   3.9833255542081E+00
(PID.TID 0000.0001) %MON ke_max                       =   5.4252219013827E+03
(PID.TID 0000.0001) %MON ke_mean                      =   1.5825306740812E+02
(PID.TID 0000.0001) %MON ke_vol                       =   5.0995454902520E+19
(PID.TID 0000.0001) %MON vort_r_min                   =  -3.2796841918292E-04
(PID.TID 0000.0001) %MON vort_r_max                   =   1.5172947668949E-04
(PID.TID 0000.0001) %MON vort_a_mean                  =  -3.1865584944898E-20
(PID.TID 0000.0001) %MON vort_a_sd                    =   8.8881994557513E-05
(PID.TID 0000.0001) %MON vort_p_mean                  =  -3.1865584944898E-20
(PID.TID 0000.0001) %MON vort_p_sd                    =   8.8881994557513E-05
(PID.TID 0000.0001) %MON surfExpan_theta_mean         =  -3.3858264680883E-03
(PID.TID 0000.0001) %MON surfExpan_salt_mean          =  -1.6996265462499E-03
(PID.TID 0000.0001) %MON surfExpan_Heat_mean          =  -3.4147956295225E-01
(PID.TID 0000.0001) %MON En_Budget_T2PE_mean          =   1.8737340866977E+00
(PID.TID 0000.0001) // =======================================================
(PID.TID 0000.0001) // End MONITOR dynamic field statistics
(PID.TID 0000.0001) // =======================================================
(PID.TID 0000.0001) // =======================================================
(PID.TID 0000.0001) // Begin MONITOR Land statistics
(PID.TID 0000.0001) // =======================================================
(PID.TID 0000.0001) %MON land_time_sec                =   6.6749186640000E+11
(PID.TID 0000.0001) %MON land_SnwH_ave_G              =   3.8525027980885E-03
(PID.TID 0000.0001) %MON land_SnwH_ave_S              =   0.0000000000000E+00
(PID.TID 0000.0001) %MON land_SnwH_ave_T              =   0.0000000000000E+00
(PID.TID 0000.0001) %MON land_SnwH_ave_N              =   7.2150977015800E-03
(PID.TID 0000.0001) %MON land_SnwH_max_S              =   0.0000000000000E+00
(PID.TID 0000.0001) %MON land_SnwH_max_T              =   0.0000000000000E+00
(PID.TID 0000.0001) %MON land_SnwH_max_N              =   7.3268259387854E-02
(PID.TID 0000.0001) %MON land_Tsrf_ave_G              =   1.4884295841020E+01
(PID.TID 0000.0001) %MON land_Tsrf_ave_S              =   3.6635966034785E+01
(PID.TID 0000.0001) %MON land_Tsrf_ave_T              =   2.8302253200652E+01
(PID.TID 0000.0001) %MON land_Tsrf_ave_N              =   1.7996504044397E+00
(PID.TID 0000.0001) %MON land_Tsrf_min_S              =   3.1414761201867E+01
(PID.TID 0000.0001) %MON land_Tsrf_min_T              =   2.6168098084424E+01
(PID.TID 0000.0001) %MON land_Tsrf_min_N              =  -1.9917149283820E+01
(PID.TID 0000.0001) %MON land_Tsrf_max_S              =   4.1636888089259E+01
(PID.TID 0000.0001) %MON land_Tsrf_max_T              =   3.2205284453439E+01
(PID.TID 0000.0001) %MON land_Tsrf_max_N              =   2.7971993309468E+01
(PID.TID 0000.0001) %MON land_Tgr1_ave_G              =   1.4903441732856E+01
(PID.TID 0000.0001) %MON land_Tgr1_ave_S              =   3.6635966034785E+01
(PID.TID 0000.0001) %MON land_Tgr1_ave_T              =   2.8302253200652E+01
(PID.TID 0000.0001) %MON land_Tgr1_ave_N              =   1.8355074790279E+00
(PID.TID 0000.0001) %MON land_Tgr1_min_S              =   3.1414761201867E+01
(PID.TID 0000.0001) %MON land_Tgr1_min_T              =   2.6168098084424E+01
(PID.TID 0000.0001) %MON land_Tgr1_min_N              =  -1.9890661874689E+01
(PID.TID 0000.0001) %MON land_Tgr1_max_S              =   4.1636888089259E+01
(PID.TID 0000.0001) %MON land_Tgr1_max_T              =   3.2205284453439E+01
(PID.TID 0000.0001) %MON land_Tgr1_max_N              =   2.7971993309468E+01
(PID.TID 0000.0001) %MON land_Tgr2_ave_G              =   1.8544040891226E+01
(PID.TID 0000.0001) %MON land_Tgr2_ave_S              =   2.5515772308688E+01
(PID.TID 0000.0001) %MON land_Tgr2_ave_T              =   2.8640036366588E+01
(PID.TID 0000.0001) %MON land_Tgr2_ave_N              =   1.0246643654697E+01
(PID.TID 0000.0001) %MON land_Tgr2_min_S              =   2.1485059696735E+01
(PID.TID 0000.0001) %MON land_Tgr2_min_T              =   2.7869944162908E+01
(PID.TID 0000.0001) %MON land_Tgr2_min_N              =  -3.5045300575450E+00
(PID.TID 0000.0001) %MON land_Tgr2_max_S              =   2.8434265665936E+01
(PID.TID 0000.0001) %MON land_Tgr2_max_T              =   3.0667247238794E+01
(PID.TID 0000.0001) %MON land_Tgr2_max_N              =   3.1149223794185E+01
(PID.TID 0000.0001) %MON land_TotEnerg_G              =   1.0747423395039E+21
(PID.TID 0000.0001) %MON land_TotEnerg_S              =   1.3505266317937E+20
(PID.TID 0000.0001) %MON land_TotEnerg_T              =   9.7289328366097E+20
(PID.TID 0000.0001) %MON land_TotEnerg_N              =  -3.3203607336465E+19
(PID.TID 0000.0001) %MON land_grdW_ave_G              =   7.0713898422106E-01
(PID.TID 0000.0001) %MON land_grdW_ave_S              =   1.2699444387370E-01
(PID.TID 0000.0001) %MON land_grdW_ave_T              =   7.6775146669826E-01
(PID.TID 0000.0001) %MON land_grdW_ave_N              =   7.5980051249614E-01
(PID.TID 0000.0001) %MON land_grdW_min_S              =   1.4477203031984E-02
(PID.TID 0000.0001) %MON land_grdW_min_T              =   1.3707747126623E-01
(PID.TID 0000.0001) %MON land_grdW_min_N              =   4.4100279846923E-02
(PID.TID 0000.0001) // =======================================================
(PID.TID 0000.0001) // End MONITOR Land statistics
(PID.TID 0000.0001) // =======================================================
(PID.TID 0000.0001) // =======================================================
(PID.TID 0000.0001) // Begin MONITOR Therm.SeaIce statistics
(PID.TID 0000.0001) // =======================================================
(PID.TID 0000.0001) %MON thSI_time_sec                =   6.6749186640000E+11
(PID.TID 0000.0001) %MON thSI_Ice_Area_G              =   4.9749028230338E+13
(PID.TID 0000.0001) %MON thSI_Ice_Area_S              =   4.9749028230338E+13
(PID.TID 0000.0001) %MON thSI_Ice_Area_N              =   0.0000000000000E+00
(PID.TID 0000.0001) %MON thSI_IceH_ave_G              =   9.9219282130982E+00
(PID.TID 0000.0001) %MON thSI_IceH_ave_S              =   9.9219282130982E+00
(PID.TID 0000.0001) %MON thSI_IceH_ave_N              =   0.0000000000000E+00
(PID.TID 0000.0001) %MON thSI_IceH_max_S              =   2.2476377442323E+01
(PID.TID 0000.0001) %MON thSI_IceH_max_N              =   0.0000000000000E+00
(PID.TID 0000.0001) %MON thSI_SnwH_ave_G              =   4.7697998483230E-02
(PID.TID 0000.0001) %MON thSI_SnwH_ave_S              =   4.7697998483230E-02
(PID.TID 0000.0001) %MON thSI_SnwH_ave_N              =   0.0000000000000E+00
(PID.TID 0000.0001) %MON thSI_SnwH_max_S              =   3.1865992558980E-01
(PID.TID 0000.0001) %MON thSI_SnwH_max_N              =   0.0000000000000E+00
(PID.TID 0000.0001) %MON thSI_Tsrf_ave_G              =  -8.7365762071064E-01
(PID.TID 0000.0001) %MON thSI_Tsrf_ave_S              =  -8.7365762071064E-01
(PID.TID 0000.0001) %MON thSI_Tsrf_ave_N              =   0.0000000000000E+00
(PID.TID 0000.0001) %MON thSI_Tsrf_min_S              =  -8.7963345155447E+00
(PID.TID 0000.0001) %MON thSI_Tsrf_min_N              =   0.0000000000000E+00
(PID.TID 0000.0001) %MON thSI_Tsrf_max_S              =   0.0000000000000E+00
(PID.TID 0000.0001) %MON thSI_Tsrf_max_N              =   0.0000000000000E+00
(PID.TID 0000.0001) %MON thSI_Tic1_ave_G              =  -1.4090905520926E+01
(PID.TID 0000.0001) %MON thSI_Tic1_ave_S              =  -1.4090905520926E+01
(PID.TID 0000.0001) %MON thSI_Tic1_ave_N              =   0.0000000000000E+00
(PID.TID 0000.0001) %MON thSI_Tic1_min_S              =  -1.9918488387657E+01
(PID.TID 0000.0001) %MON thSI_Tic1_min_N              =   0.0000000000000E+00
(PID.TID 0000.0001) %MON thSI_Tic1_max_S              =  -1.5191853199964E-01
(PID.TID 0000.0001) %MON thSI_Tic1_max_N              =   0.0000000000000E+00
(PID.TID 0000.0001) %MON thSI_Tic2_ave_G              =  -6.1602705796012E+00
(PID.TID 0000.0001) %MON thSI_Tic2_ave_S              =  -6.1602705796012E+00
(PID.TID 0000.0001) %MON thSI_Tic2_ave_N              =   0.0000000000000E+00
(PID.TID 0000.0001) %MON thSI_Tic2_min_S              =  -7.6251729456043E+00
(PID.TID 0000.0001) %MON thSI_Tic2_min_N              =   0.0000000000000E+00
(PID.TID 0000.0001) %MON thSI_Tic2_max_S              =  -1.8507302969684E-02
(PID.TID 0000.0001) %MON thSI_Tic2_max_N              =   0.0000000000000E+00
(PID.TID 0000.0001) %MON thSI_TotEnerg_G              =  -1.5750819189634E+23
(PID.TID 0000.0001) // =======================================================
(PID.TID 0000.0001) // End MONITOR Therm.SeaIce statistics
(PID.TID 0000.0001) // =======================================================
 Compute Stats, Diag. #    187  SI_Fract  vol(   0 ): 5.100E+14  Parms: SM P    M1      
 Compute Stats, Diag. #    188  SI_Thick  vol(   0 ): 4.975E+13  Parms: SM PC   M1      
    use Counter Mate  #    187  SI_Fract  vol(   0 ): 5.100E+14 integral 4.975E+13
 Compute Stats, Diag. #    273  aim_pCO2  vol(   0 ): 5.100E+14  Parms: SM P    L1      
 Compute Stats, Diag. #    279  CPL_fCO2  vol(   0 ): 5.100E+14  Parms: SM      M1      
 Compute Stats, Diag. #    275  CPL_MxlD  vol(   0 ): 5.100E+14  Parms: SM      M1      
 Compute Stats, Diag. #    276  CPL_SST   vol(   0 ): 5.100E+14  Parms: SM      M1      
 Compute Stats, Diag. #    277  CPL_SSS   vol(   0 ): 5.100E+14  Parms: SM      M1      
 Compute Stats, Diag. #    278  CPL_Vel2  vol(   0 ): 5.100E+14  Parms: SM      M1      
 cg2d: Sum(rhs),rhsMax =  -2.18655914068222E-05  5.41246730074008E+03
(PID.TID 0000.0001)      cg2d_init_res =   1.06832431188708E+03
(PID.TID 0000.0001)      cg2d_iters(min,last) =      -1      23
(PID.TID 0000.0001)      cg2d_last_res =   3.75697400446975E-11
 cg3d: Sum(rhs),rhsMax =   2.90641209016451E-13  8.04252416645632E+00
(PID.TID 0000.0001)      cg3d_init_res =   6.61630743665162E-01
(PID.TID 0000.0001)      cg3d_iters (last) =                 11
(PID.TID 0000.0001)      cg3d_last_res =   6.62144580675056E-05
(PID.TID 0000.0001) // =======================================================
(PID.TID 0000.0001) // Begin MONITOR dynamic field statistics
(PID.TID 0000.0001) // =======================================================
(PID.TID 0000.0001) %MON time_tsnumber                =             556243223
(PID.TID 0000.0001) %MON time_secondsf                =   6.6749186760000E+11
(PID.TID 0000.0001) %MON dynstat_eta_max              =   2.2297402936474E+03
(PID.TID 0000.0001) %MON dynstat_eta_min              =  -4.4397087202346E+03
(PID.TID 0000.0001) %MON dynstat_eta_mean             =   6.2208588645087E-09
(PID.TID 0000.0001) %MON dynstat_eta_sd               =   9.7926316784225E+02
(PID.TID 0000.0001) %MON dynstat_eta_del2             =   4.3870271722794E+00
(PID.TID 0000.0001) %MON dynstat_uvel_max             =   7.7229773010904E+01
(PID.TID 0000.0001) %MON dynstat_uvel_min             =  -5.9692125070036E+01
(PID.TID 0000.0001) %MON dynstat_uvel_mean            =   1.8414979627179E+00
(PID.TID 0000.0001) %MON dynstat_uvel_sd              =   1.2395804542363E+01
(PID.TID 0000.0001) %MON dynstat_uvel_del2            =   4.8842533476780E-02
(PID.TID 0000.0001) %MON dynstat_vvel_max             =   1.0478236531005E+02
(PID.TID 0000.0001) %MON dynstat_vvel_min             =  -5.1753093523978E+01
(PID.TID 0000.0001) %MON dynstat_vvel_mean            =   1.7894280105360E+00
(PID.TID 0000.0001) %MON dynstat_vvel_sd              =   1.2507205555305E+01
(PID.TID 0000.0001) %MON dynstat_vvel_del2            =   4.8096822587547E-02
(PID.TID 0000.0001) %MON dynstat_wvel_max             =   1.4361945453678E+00
(PID.TID 0000.0001) %MON dynstat_wvel_min             =  -1.8878907582629E+00
(PID.TID 0000.0001) %MON dynstat_wvel_mean            =   5.0878938124079E-19
(PID.TID 0000.0001) %MON dynstat_wvel_sd              =   9.3834922179832E-02
(PID.TID 0000.0001) %MON dynstat_wvel_del2            =   1.5131357859158E-03
(PID.TID 0000.0001) %MON dynstat_theta_max            =   5.0223022212675E+02
(PID.TID 0000.0001) %MON dynstat_theta_min            =   2.6593687577898E+02
(PID.TID 0000.0001) %MON dynstat_theta_mean           =   3.3728927053998E+02
(PID.TID 0000.0001) %MON dynstat_theta_sd             =   4.8957568491391E+01
(PID.TID 0000.0001) %MON dynstat_theta_del2           =   2.7090746452609E-02
(PID.TID 0000.0001) %MON dynstat_salt_max             =   1.7782619623662E+01
(PID.TID 0000.0001) %MON dynstat_salt_min             =  -2.1256684618610E+00
(PID.TID 0000.0001) %MON dynstat_salt_mean            =   3.2318908313154E+00
(PID.TID 0000.0001) %MON dynstat_salt_sd              =   3.9629269480702E+00
(PID.TID 0000.0001) %MON dynstat_salt_del2            =   1.1966384427927E-02
(PID.TID 0000.0001) %MON trAdv_CFL_u_max              =   5.3138532352428E-01
(PID.TID 0000.0001) %MON trAdv_CFL_v_max              =   4.0293349328232E-01
(PID.TID 0000.0001) %MON trAdv_CFL_w_max              =   1.7612124473332E-01
(PID.TID 0000.0001) %MON advcfl_uvel_max              =   5.6020598206641E-01
(PID.TID 0000.0001) %MON advcfl_vvel_max              =   4.6859609373886E-01
(PID.TID 0000.0001) %MON advcfl_wvel_max              =   1.0625811761037E-01
(PID.TID 0000.0001) %MON advcfl_W_hf_max              =   1.8595170581815E-01
(PID.TID 0000.0001) %MON am_eta_mean                  =   2.4553064441074E+10
(PID.TID 0000.0001) %MON am_uZo_mean                  =   3.1470888052298E+11
(PID.TID 0000.0001) %MON am_tot_mean                  =   3.3926194496406E+11
(PID.TID 0000.0001) %MON pe_b_mean                    =   3.9832087792298E+00
(PID.TID 0000.0001) %MON ke_max                       =   5.4435570907632E+03
(PID.TID 0000.0001) %MON ke_mean                      =   1.5826829652808E+02
(PID.TID 0000.0001) %MON ke_vol                       =   5.0995454902520E+19
(PID.TID 0000.0001) %MON vort_r_min                   =  -2.8343636992292E-04
(PID.TID 0000.0001) %MON vort_r_max                   =   1.4096529628479E-04
(PID.TID 0000.0001) %MON vort_a_mean                  =  -7.5987164099373E-20
(PID.TID 0000.0001) %MON vort_a_sd                    =   8.8883117205184E-05
(PID.TID 0000.0001) %MON vort_p_mean                  =  -7.5987164099373E-20
(PID.TID 0000.0001) %MON vort_p_sd                    =   8.8883117205184E-05
(PID.TID 0000.0001) %MON surfExpan_theta_mean         =  -3.4706270824946E-03
(PID.TID 0000.0001) %MON surfExpan_salt_mean          =  -1.7394313917060E-03
(PID.TID 0000.0001) %MON surfExpan_Heat_mean          =  -3.5003217987413E-01
(PID.TID 0000.0001) %MON En_Budget_T2PE_mean          =   1.8782700036454E+00
(PID.TID 0000.0001) // =======================================================
(PID.TID 0000.0001) // End MONITOR dynamic field statistics
(PID.TID 0000.0001) // =======================================================
(PID.TID 0000.0001) // =======================================================
(PID.TID 0000.0001) // Begin MONITOR Land statistics
(PID.TID 0000.0001) // =======================================================
(PID.TID 0000.0001) %MON land_time_sec                =   6.6749186760000E+11
(PID.TID 0000.0001) %MON land_SnwH_ave_G              =   3.8550259350428E-03
(PID.TID 0000.0001) %MON land_SnwH_ave_S              =   0.0000000000000E+00
(PID.TID 0000.0001) %MON land_SnwH_ave_T              =   0.0000000000000E+00
(PID.TID 0000.0001) %MON land_SnwH_ave_N              =   7.2198231179117E-03
(PID.TID 0000.0001) %MON land_SnwH_max_S              =   0.0000000000000E+00
(PID.TID 0000.0001) %MON land_SnwH_max_T              =   0.0000000000000E+00
(PID.TID 0000.0001) %MON land_SnwH_max_N              =   7.3268108650377E-02
(PID.TID 0000.0001) %MON land_Tsrf_ave_G              =   1.4892971543337E+01
(PID.TID 0000.0001) %MON land_Tsrf_ave_S              =   3.6660820121801E+01
(PID.TID 0000.0001) %MON land_Tsrf_ave_T              =   2.8309590161169E+01
(PID.TID 0000.0001) %MON land_Tsrf_ave_N              =   1.8066086200858E+00
(PID.TID 0000.0001) %MON land_Tsrf_min_S              =   3.1408785818452E+01
(PID.TID 0000.0001) %MON land_Tsrf_min_T              =   2.6186734160906E+01
(PID.TID 0000.0001) %MON land_Tsrf_min_N              =  -1.9914796994177E+01
(PID.TID 0000.0001) %MON land_Tsrf_max_S              =   4.1681489160036E+01
(PID.TID 0000.0001) %MON land_Tsrf_max_T              =   3.2268990981407E+01
(PID.TID 0000.0001) %MON land_Tsrf_max_N              =   2.7916180554007E+01
(PID.TID 0000.0001) %MON land_Tgr1_ave_G              =   1.4910894858251E+01
(PID.TID 0000.0001) %MON land_Tgr1_ave_S              =   3.6660820121801E+01
(PID.TID 0000.0001) %MON land_Tgr1_ave_T              =   2.8309590161169E+01
(PID.TID 0000.0001) %MON land_Tgr1_ave_N              =   1.8401760112135E+00
(PID.TID 0000.0001) %MON land_Tgr1_min_S              =   3.1408785818452E+01
(PID.TID 0000.0001) %MON land_Tgr1_min_T              =   2.6186734160906E+01
(PID.TID 0000.0001) %MON land_Tgr1_min_N              =  -1.9888220934270E+01
(PID.TID 0000.0001) %MON land_Tgr1_max_S              =   4.1681489160036E+01
(PID.TID 0000.0001) %MON land_Tgr1_max_T              =   3.2268990981407E+01
(PID.TID 0000.0001) %MON land_Tgr1_max_N              =   2.7916180554007E+01
(PID.TID 0000.0001) %MON land_Tgr2_ave_G              =   1.8543962362265E+01
(PID.TID 0000.0001) %MON land_Tgr2_ave_S              =   2.5516352935342E+01
(PID.TID 0000.0001) %MON land_Tgr2_ave_T              =   2.8640023239850E+01
(PID.TID 0000.0001) %MON land_Tgr2_ave_N              =   1.0246410218259E+01
(PID.TID 0000.0001) %MON land_Tgr2_min_S              =   2.1485749422162E+01
(PID.TID 0000.0001) %MON land_Tgr2_min_T              =   2.7869954403852E+01
(PID.TID 0000.0001) %MON land_Tgr2_min_N              =  -3.5049380511159E+00
(PID.TID 0000.0001) %MON land_Tgr2_max_S              =   2.8434721428063E+01
(PID.TID 0000.0001) %MON land_Tgr2_max_T              =   3.0667155641480E+01
(PID.TID 0000.0001) %MON land_Tgr2_max_N              =   3.1149071011979E+01
(PID.TID 0000.0001) %MON land_TotEnerg_G              =   1.0747357654122E+21
(PID.TID 0000.0001) %MON land_TotEnerg_S              =   1.3505903743475E+20
(PID.TID 0000.0001) %MON land_TotEnerg_T              =   9.7289106247779E+20
(PID.TID 0000.0001) %MON land_TotEnerg_N              =  -3.3214334500378E+19
(PID.TID 0000.0001) %MON land_grdW_ave_G              =   7.0713360571277E-01
(PID.TID 0000.0001) %MON land_grdW_ave_S              =   1.2699829146297E-01
(PID.TID 0000.0001) %MON land_grdW_ave_T              =   7.6773682610071E-01
(PID.TID 0000.0001) %MON land_grdW_ave_N              =   7.5980017228279E-01
(PID.TID 0000.0001) %MON land_grdW_min_S              =   1.4419111358529E-02
(PID.TID 0000.0001) %MON land_grdW_min_T              =   1.3792587068739E-01
(PID.TID 0000.0001) %MON land_grdW_min_N              =   4.4055042533036E-02
(PID.TID 0000.0001) // =======================================================
(PID.TID 0000.0001) // End MONITOR Land statistics
(PID.TID 0000.0001) // =======================================================
(PID.TID 0000.0001) // =======================================================
(PID.TID 0000.0001) // Begin MONITOR Therm.SeaIce statistics
(PID.TID 0000.0001) // =======================================================
(PID.TID 0000.0001) %MON thSI_time_sec                =   6.6749186760000E+11
(PID.TID 0000.0001) %MON thSI_Ice_Area_G              =   4.9747589370098E+13
(PID.TID 0000.0001) %MON thSI_Ice_Area_S              =   4.9747589370098E+13
(PID.TID 0000.0001) %MON thSI_Ice_Area_N              =   0.0000000000000E+00
(PID.TID 0000.0001) %MON thSI_IceH_ave_G              =   9.9221345194199E+00
(PID.TID 0000.0001) %MON thSI_IceH_ave_S              =   9.9221345194199E+00
(PID.TID 0000.0001) %MON thSI_IceH_ave_N              =   0.0000000000000E+00
(PID.TID 0000.0001) %MON thSI_IceH_max_S              =   2.2476382900747E+01
(PID.TID 0000.0001) %MON thSI_IceH_max_N              =   0.0000000000000E+00
(PID.TID 0000.0001) %MON thSI_SnwH_ave_G              =   4.7620602138335E-02
(PID.TID 0000.0001) %MON thSI_SnwH_ave_S              =   4.7620602138335E-02
(PID.TID 0000.0001) %MON thSI_SnwH_ave_N              =   0.0000000000000E+00
(PID.TID 0000.0001) %MON thSI_SnwH_max_S              =   3.1845332751551E-01
(PID.TID 0000.0001) %MON thSI_SnwH_max_N              =   0.0000000000000E+00
(PID.TID 0000.0001) %MON thSI_Tsrf_ave_G              =  -8.7506673740616E-01
(PID.TID 0000.0001) %MON thSI_Tsrf_ave_S              =  -8.7506673740616E-01
(PID.TID 0000.0001) %MON thSI_Tsrf_ave_N              =   0.0000000000000E+00
(PID.TID 0000.0001) %MON thSI_Tsrf_min_S              =  -8.7953198037162E+00
(PID.TID 0000.0001) %MON thSI_Tsrf_min_N              =   0.0000000000000E+00
(PID.TID 0000.0001) %MON thSI_Tsrf_max_S              =   0.0000000000000E+00
(PID.TID 0000.0001) %MON thSI_Tsrf_max_N              =   0.0000000000000E+00
(PID.TID 0000.0001) %MON thSI_Tic1_ave_G              =  -1.4090192364871E+01
(PID.TID 0000.0001) %MON thSI_Tic1_ave_S              =  -1.4090192364871E+01
(PID.TID 0000.0001) %MON thSI_Tic1_ave_N              =   0.0000000000000E+00
(PID.TID 0000.0001) %MON thSI_Tic1_min_S              =  -1.9918040433521E+01
(PID.TID 0000.0001) %MON thSI_Tic1_min_N              =   0.0000000000000E+00
(PID.TID 0000.0001) %MON thSI_Tic1_max_S              =  -1.5246453529847E-01
(PID.TID 0000.0001) %MON thSI_Tic1_max_N              =   0.0000000000000E+00
(PID.TID 0000.0001) %MON thSI_Tic2_ave_G              =  -6.1602154109125E+00
(PID.TID 0000.0001) %MON thSI_Tic2_ave_S              =  -6.1602154109125E+00
(PID.TID 0000.0001) %MON thSI_Tic2_ave_N              =   0.0000000000000E+00
(PID.TID 0000.0001) %MON thSI_Tic2_min_S              =  -7.6251749853886E+00
(PID.TID 0000.0001) %MON thSI_Tic2_min_N              =   0.0000000000000E+00
(PID.TID 0000.0001) %MON thSI_Tic2_max_S              =  -1.3688706368021E-02
(PID.TID 0000.0001) %MON thSI_Tic2_max_N              =   0.0000000000000E+00
(PID.TID 0000.0001) %MON thSI_TotEnerg_G              =  -1.5750598282802E+23
(PID.TID 0000.0001) // =======================================================
(PID.TID 0000.0001) // End MONITOR Therm.SeaIce statistics
(PID.TID 0000.0001) // =======================================================
 cg2d: Sum(rhs),rhsMax =  -2.18641362152994E-05  5.53152325644200E+03
(PID.TID 0000.0001)      cg2d_init_res =   1.11323432318846E+03
(PID.TID 0000.0001)      cg2d_iters(min,last) =      -1      23
(PID.TID 0000.0001)      cg2d_last_res =   3.74713749448621E-11
 cg3d: Sum(rhs),rhsMax =   4.37457145160969E-14  7.07619977119730E+00
(PID.TID 0000.0001)      cg3d_init_res =   7.50702687057331E-01
(PID.TID 0000.0001)      cg3d_iters (last) =                 11
(PID.TID 0000.0001)      cg3d_last_res =   7.96269311523081E-05
(PID.TID 0000.0001) // =======================================================
(PID.TID 0000.0001) // Begin MONITOR dynamic field statistics
(PID.TID 0000.0001) // =======================================================
(PID.TID 0000.0001) %MON time_tsnumber                =             556243224
(PID.TID 0000.0001) %MON time_secondsf                =   6.6749186880000E+11
(PID.TID 0000.0001) %MON dynstat_eta_max              =   2.2289161487856E+03
(PID.TID 0000.0001) %MON dynstat_eta_min              =  -4.4443908609573E+03
(PID.TID 0000.0001) %MON dynstat_eta_mean             =   6.2210002292640E-09
(PID.TID 0000.0001) %MON dynstat_eta_sd               =   9.7923498111060E+02
(PID.TID 0000.0001) %MON dynstat_eta_del2             =   4.3905348339336E+00
(PID.TID 0000.0001) %MON dynstat_uvel_max             =   7.7106939387825E+01
(PID.TID 0000.0001) %MON dynstat_uvel_min             =  -5.9615924338820E+01
(PID.TID 0000.0001) %MON dynstat_uvel_mean            =   1.8419566382647E+00
(PID.TID 0000.0001) %MON dynstat_uvel_sd              =   1.2394819209148E+01
(PID.TID 0000.0001) %MON dynstat_uvel_del2            =   4.8837527110719E-02
(PID.TID 0000.0001) %MON dynstat_vvel_max             =   1.0467468192196E+02
(PID.TID 0000.0001) %MON dynstat_vvel_min             =  -5.1661984333968E+01
(PID.TID 0000.0001) %MON dynstat_vvel_mean            =   1.7891886433571E+00
(PID.TID 0000.0001) %MON dynstat_vvel_sd              =   1.2509430786788E+01
(PID.TID 0000.0001) %MON dynstat_vvel_del2            =   4.8264199960485E-02
(PID.TID 0000.0001) %MON dynstat_wvel_max             =   1.3679690068462E+00
(PID.TID 0000.0001) %MON dynstat_wvel_min             =  -1.8646153906586E+00
(PID.TID 0000.0001) %MON dynstat_wvel_mean            =  -5.9358761144759E-19
(PID.TID 0000.0001) %MON dynstat_wvel_sd              =   9.3887947436761E-02
(PID.TID 0000.0001) %MON dynstat_wvel_del2            =   1.5204480948677E-03
(PID.TID 0000.0001) %MON dynstat_theta_max            =   5.0223517225875E+02
(PID.TID 0000.0001) %MON dynstat_theta_min            =   2.6592193357745E+02
(PID.TID 0000.0001) %MON dynstat_theta_mean           =   3.3728865519897E+02
(PID.TID 0000.0001) %MON dynstat_theta_sd             =   4.8957806822753E+01
(PID.TID 0000.0001) %MON dynstat_theta_del2           =   2.7094296754998E-02
(PID.TID 0000.0001) %MON dynstat_salt_max             =   1.7779183879141E+01
(PID.TID 0000.0001) %MON dynstat_salt_min             =  -2.1749371448577E+00
(PID.TID 0000.0001) %MON dynstat_salt_mean            =   3.2318650023689E+00
(PID.TID 0000.0001) %MON dynstat_salt_sd              =   3.9629088993053E+00
(PID.TID 0000.0001) %MON dynstat_salt_del2            =   1.1965386828085E-02
(PID.TID 0000.0001) %MON trAdv_CFL_u_max              =   5.2185272138758E-01
(PID.TID 0000.0001) %MON trAdv_CFL_v_max              =   4.1417852355302E-01
(PID.TID 0000.0001) %MON trAdv_CFL_w_max              =   1.8959892384640E-01
(PID.TID 0000.0001) %MON advcfl_uvel_max              =   5.7422286809318E-01
(PID.TID 0000.0001) %MON advcfl_vvel_max              =   4.6944534671848E-01
(PID.TID 0000.0001) %MON advcfl_wvel_max              =   1.0612098178537E-01
(PID.TID 0000.0001) %MON advcfl_W_hf_max              =   1.8571171812439E-01
(PID.TID 0000.0001) %MON am_eta_mean                  =   2.4559230838934E+10
(PID.TID 0000.0001) %MON am_uZo_mean                  =   3.1471045975212E+11
(PID.TID 0000.0001) %MON am_tot_mean                  =   3.3926969059106E+11
(PID.TID 0000.0001) %MON pe_b_mean                    =   3.9829794802531E+00
(PID.TID 0000.0001) %MON ke_max                       =   5.4564672889428E+03
(PID.TID 0000.0001) %MON ke_mean                      =   1.5828385878105E+02
(PID.TID 0000.0001) %MON ke_vol                       =   5.0995454902520E+19
(PID.TID 0000.0001) %MON vort_r_min                   =  -2.8205410720626E-04
(PID.TID 0000.0001) %MON vort_r_max                   =   1.3657390407292E-04
(PID.TID 0000.0001) %MON vort_a_mean                  =  -8.3340760625119E-20
(PID.TID 0000.0001) %MON vort_a_sd                    =   8.8884600306348E-05
(PID.TID 0000.0001) %MON vort_p_mean                  =  -8.3340760625119E-20
(PID.TID 0000.0001) %MON vort_p_sd                    =   8.8884600306348E-05
(PID.TID 0000.0001) %MON surfExpan_theta_mean         =  -3.5717246218513E-03
(PID.TID 0000.0001) %MON surfExpan_salt_mean          =  -1.7844539982429E-03
(PID.TID 0000.0001) %MON surfExpan_Heat_mean          =  -3.6022843295460E-01
(PID.TID 0000.0001) %MON En_Budget_T2PE_mean          =   1.8830090209465E+00
(PID.TID 0000.0001) // =======================================================
(PID.TID 0000.0001) // End MONITOR dynamic field statistics
(PID.TID 0000.0001) // =======================================================
(PID.TID 0000.0001) // =======================================================
(PID.TID 0000.0001) // Begin MONITOR Land statistics
(PID.TID 0000.0001) // =======================================================
(PID.TID 0000.0001) %MON land_time_sec                =   6.6749186880000E+11
(PID.TID 0000.0001) %MON land_SnwH_ave_G              =   3.8575857603123E-03
(PID.TID 0000.0001) %MON land_SnwH_ave_S              =   0.0000000000000E+00
(PID.TID 0000.0001) %MON land_SnwH_ave_T              =   0.0000000000000E+00
(PID.TID 0000.0001) %MON land_SnwH_ave_N              =   7.2246172453624E-03
(PID.TID 0000.0001) %MON land_SnwH_max_S              =   0.0000000000000E+00
(PID.TID 0000.0001) %MON land_SnwH_max_T              =   0.0000000000000E+00
(PID.TID 0000.0001) %MON land_SnwH_max_N              =   7.3267937726197E-02
(PID.TID 0000.0001) %MON land_Tsrf_ave_G              =   1.4901183927924E+01
(PID.TID 0000.0001) %MON land_Tsrf_ave_S              =   3.6685359378888E+01
(PID.TID 0000.0001) %MON land_Tsrf_ave_T              =   2.8316797447762E+01
(PID.TID 0000.0001) %MON land_Tsrf_ave_N              =   1.8128428072557E+00
(PID.TID 0000.0001) %MON land_Tsrf_min_S              =   3.1401788907564E+01
(PID.TID 0000.0001) %MON land_Tsrf_min_T              =   2.6206430007529E+01
(PID.TID 0000.0001) %MON land_Tsrf_min_N              =  -1.9912581479568E+01
(PID.TID 0000.0001) %MON land_Tsrf_max_S              =   4.1724285614039E+01
(PID.TID 0000.0001) %MON land_Tsrf_max_T              =   3.2332261037225E+01
(PID.TID 0000.0001) %MON land_Tsrf_max_N              =   2.7860299750979E+01
(PID.TID 0000.0001) %MON land_Tgr1_ave_G              =   1.4918161892294E+01
(PID.TID 0000.0001) %MON land_Tgr1_ave_S              =   3.6685359378888E+01
(PID.TID 0000.0001) %MON land_Tgr1_ave_T              =   2.8316797447762E+01
(PID.TID 0000.0001) %MON land_Tgr1_ave_N              =   1.8446397138708E+00
(PID.TID 0000.0001) %MON land_Tgr1_min_S              =   3.1401788907564E+01
(PID.TID 0000.0001) %MON land_Tgr1_min_T              =   2.6206430007529E+01
(PID.TID 0000.0001) %MON land_Tgr1_min_N              =  -1.9885884615695E+01
(PID.TID 0000.0001) %MON land_Tgr1_max_S              =   4.1724285614039E+01
(PID.TID 0000.0001) %MON land_Tgr1_max_T              =   3.2332261037225E+01
(PID.TID 0000.0001) %MON land_Tgr1_max_N              =   2.7860299750979E+01
(PID.TID 0000.0001) %MON land_Tgr2_ave_G              =   1.8543884230138E+01
(PID.TID 0000.0001) %MON land_Tgr2_ave_S              =   2.5516934779396E+01
(PID.TID 0000.0001) %MON land_Tgr2_ave_T              =   2.8640010392577E+01
(PID.TID 0000.0001) %MON land_Tgr2_ave_N              =   1.0246177126572E+01
(PID.TID 0000.0001) %MON land_Tgr2_min_S              =   2.1486436280073E+01
(PID.TID 0000.0001) %MON land_Tgr2_min_T              =   2.7869964793307E+01
(PID.TID 0000.0001) %MON land_Tgr2_min_N              =  -3.5053465693848E+00
(PID.TID 0000.0001) %MON land_Tgr2_max_S              =   2.8435178495500E+01
(PID.TID 0000.0001) %MON land_Tgr2_max_T              =   3.0667063527950E+01
(PID.TID 0000.0001) %MON land_Tgr2_max_N              =   3.1148915612937E+01
(PID.TID 0000.0001) %MON land_TotEnerg_G              =   1.0747288179161E+21
(PID.TID 0000.0001) %MON land_TotEnerg_S              =   1.3506539613033E+20
(PID.TID 0000.0001) %MON land_TotEnerg_T              =   9.7288869355280E+20
(PID.TID 0000.0001) %MON land_TotEnerg_N              =  -3.3225271767064E+19
(PID.TID 0000.0001) %MON land_grdW_ave_G              =   7.0712831435455E-01
(PID.TID 0000.0001) %MON land_grdW_ave_S              =   1.2700232955795E-01
(PID.TID 0000.0001) %MON land_grdW_ave_T              =   7.6772216282068E-01
(PID.TID 0000.0001) %MON land_grdW_ave_N              =   7.5979997996187E-01
(PID.TID 0000.0001) %MON land_grdW_min_S              =   1.4361911941845E-02
(PID.TID 0000.0001) %MON land_grdW_min_T              =   1.3880487896688E-01
(PID.TID 0000.0001) %MON land_grdW_min_N              =   4.4011052674143E-02
(PID.TID 0000.0001) // =======================================================
(PID.TID 0000.0001) // End MONITOR Land statistics
(PID.TID 0000.0001) // =======================================================
(PID.TID 0000.0001) // =======================================================
(PID.TID 0000.0001) // Begin MONITOR Therm.SeaIce statistics
(PID.TID 0000.0001) // =======================================================
(PID.TID 0000.0001) %MON thSI_time_sec                =   6.6749186880000E+11
(PID.TID 0000.0001) %MON thSI_Ice_Area_G              =   4.9746152958879E+13
(PID.TID 0000.0001) %MON thSI_Ice_Area_S              =   4.9746152958879E+13
(PID.TID 0000.0001) %MON thSI_Ice_Area_N              =   0.0000000000000E+00
(PID.TID 0000.0001) %MON thSI_IceH_ave_G              =   9.9223403082090E+00
(PID.TID 0000.0001) %MON thSI_IceH_ave_S              =   9.9223403082090E+00
(PID.TID 0000.0001) %MON thSI_IceH_ave_N              =   0.0000000000000E+00
(PID.TID 0000.0001) %MON thSI_IceH_max_S              =   2.2476388359170E+01
(PID.TID 0000.0001) %MON thSI_IceH_max_N              =   0.0000000000000E+00
(PID.TID 0000.0001) %MON thSI_SnwH_ave_G              =   4.7543317887723E-02
(PID.TID 0000.0001) %MON thSI_SnwH_ave_S              =   4.7543317887723E-02
(PID.TID 0000.0001) %MON thSI_SnwH_ave_N              =   0.0000000000000E+00
(PID.TID 0000.0001) %MON thSI_SnwH_max_S              =   3.1824562147100E-01
(PID.TID 0000.0001) %MON thSI_SnwH_max_N              =   0.0000000000000E+00
(PID.TID 0000.0001) %MON thSI_Tsrf_ave_G              =  -8.7714236426137E-01
(PID.TID 0000.0001) %MON thSI_Tsrf_ave_S              =  -8.7714236426137E-01
(PID.TID 0000.0001) %MON thSI_Tsrf_ave_N              =   0.0000000000000E+00
(PID.TID 0000.0001) %MON thSI_Tsrf_min_S              =  -8.7919053994050E+00
(PID.TID 0000.0001) %MON thSI_Tsrf_min_N              =   0.0000000000000E+00
(PID.TID 0000.0001) %MON thSI_Tsrf_max_S              =   0.0000000000000E+00
(PID.TID 0000.0001) %MON thSI_Tsrf_max_N              =   0.0000000000000E+00
(PID.TID 0000.0001) %MON thSI_Tic1_ave_G              =  -1.4089479589977E+01
(PID.TID 0000.0001) %MON thSI_Tic1_ave_S              =  -1.4089479589977E+01
(PID.TID 0000.0001) %MON thSI_Tic1_ave_N              =   0.0000000000000E+00
(PID.TID 0000.0001) %MON thSI_Tic1_min_S              =  -1.9917592413672E+01
(PID.TID 0000.0001) %MON thSI_Tic1_min_N              =   0.0000000000000E+00
(PID.TID 0000.0001) %MON thSI_Tic1_max_S              =  -1.5301705632693E-01
(PID.TID 0000.0001) %MON thSI_Tic1_max_N              =   0.0000000000000E+00
(PID.TID 0000.0001) %MON thSI_Tic2_ave_G              =  -6.1601567012083E+00
(PID.TID 0000.0001) %MON thSI_Tic2_ave_S              =  -6.1601567012083E+00
(PID.TID 0000.0001) %MON thSI_Tic2_ave_N              =   0.0000000000000E+00
(PID.TID 0000.0001) %MON thSI_Tic2_min_S              =  -7.6251770203173E+00
(PID.TID 0000.0001) %MON thSI_Tic2_min_N              =   0.0000000000000E+00
(PID.TID 0000.0001) %MON thSI_Tic2_max_S              =  -8.8974140492095E-03
(PID.TID 0000.0001) %MON thSI_Tic2_max_N              =   0.0000000000000E+00
(PID.TID 0000.0001) %MON thSI_TotEnerg_G              =  -1.5750377403266E+23
(PID.TID 0000.0001) // =======================================================
(PID.TID 0000.0001) // End MONITOR Therm.SeaIce statistics
(PID.TID 0000.0001) // =======================================================
(PID.TID 0000.0001)   Exporting atmospheric surf fluxes at iter= 556243224
(PID.TID 0000.0001)   Importing  oceanic surface fields at iter= 556243224
 cg2d: Sum(rhs),rhsMax =  -2.18647182919085E-05  5.64200495628925E+03
(PID.TID 0000.0001)      cg2d_init_res =   1.15800521501723E+03
(PID.TID 0000.0001)      cg2d_iters(min,last) =      -1      23
(PID.TID 0000.0001)      cg2d_last_res =   3.76868259576712E-11
 cg3d: Sum(rhs),rhsMax =   2.16988970194731E-13  6.83664880544723E+00
(PID.TID 0000.0001)      cg3d_init_res =   7.94671383133684E-01
(PID.TID 0000.0001)      cg3d_iters (last) =                 11
(PID.TID 0000.0001)      cg3d_last_res =   8.65428601240207E-05
(PID.TID 0000.0001) // =======================================================
(PID.TID 0000.0001) // Begin MONITOR dynamic field statistics
(PID.TID 0000.0001) // =======================================================
(PID.TID 0000.0001) %MON time_tsnumber                =             556243225
(PID.TID 0000.0001) %MON time_secondsf                =   6.6749187000000E+11
(PID.TID 0000.0001) %MON dynstat_eta_max              =   2.2280251993279E+03
(PID.TID 0000.0001) %MON dynstat_eta_min              =  -4.4487287921793E+03
(PID.TID 0000.0001) %MON dynstat_eta_mean             =   6.2210130806053E-09
(PID.TID 0000.0001) %MON dynstat_eta_sd               =   9.7919255257557E+02
(PID.TID 0000.0001) %MON dynstat_eta_del2             =   4.3943805631732E+00
(PID.TID 0000.0001) %MON dynstat_uvel_max             =   7.6635548844452E+01
(PID.TID 0000.0001) %MON dynstat_uvel_min             =  -5.9522831483604E+01
(PID.TID 0000.0001) %MON dynstat_uvel_mean            =   1.8424287115807E+00
(PID.TID 0000.0001) %MON dynstat_uvel_sd              =   1.2393856254551E+01
(PID.TID 0000.0001) %MON dynstat_uvel_del2            =   4.8806253374084E-02
(PID.TID 0000.0001) %MON dynstat_vvel_max             =   1.0454572761046E+02
(PID.TID 0000.0001) %MON dynstat_vvel_min             =  -5.1559143741434E+01
(PID.TID 0000.0001) %MON dynstat_vvel_mean            =   1.7889401974280E+00
(PID.TID 0000.0001) %MON dynstat_vvel_sd              =   1.2511666461773E+01
(PID.TID 0000.0001) %MON dynstat_vvel_del2            =   4.8449480398459E-02
(PID.TID 0000.0001) %MON dynstat_wvel_max             =   1.2259818505774E+00
(PID.TID 0000.0001) %MON dynstat_wvel_min             =  -1.7891786223770E+00
(PID.TID 0000.0001) %MON dynstat_wvel_mean            =   1.4415699135156E-18
(PID.TID 0000.0001) %MON dynstat_wvel_sd              =   9.3990672671883E-02
(PID.TID 0000.0001) %MON dynstat_wvel_del2            =   1.5353843730095E-03
(PID.TID 0000.0001) %MON dynstat_theta_max            =   5.0223927404595E+02
(PID.TID 0000.0001) %MON dynstat_theta_min            =   2.6590702361890E+02
(PID.TID 0000.0001) %MON dynstat_theta_mean           =   3.3728804904579E+02
(PID.TID 0000.0001) %MON dynstat_theta_sd             =   4.8958027600223E+01
(PID.TID 0000.0001) %MON dynstat_theta_del2           =   2.7094719939373E-02
(PID.TID 0000.0001) %MON dynstat_salt_max             =   1.7721677938610E+01
(PID.TID 0000.0001) %MON dynstat_salt_min             =  -2.2220873532493E+00
(PID.TID 0000.0001) %MON dynstat_salt_mean            =   3.2318331821348E+00
(PID.TID 0000.0001) %MON dynstat_salt_sd              =   3.9628422826693E+00
(PID.TID 0000.0001) %MON dynstat_salt_del2            =   1.1964352008111E-02
(PID.TID 0000.0001) %MON trAdv_CFL_u_max              =   5.1432858009782E-01
(PID.TID 0000.0001) %MON trAdv_CFL_v_max              =   4.2454166380005E-01
(PID.TID 0000.0001) %MON trAdv_CFL_w_max              =   1.9016090102849E-01
(PID.TID 0000.0001) %MON advcfl_uvel_max              =   5.8761225486407E-01
(PID.TID 0000.0001) %MON advcfl_vvel_max              =   4.6980333594530E-01
(PID.TID 0000.0001) %MON advcfl_wvel_max              =   9.8671991618757E-02
(PID.TID 0000.0001) %MON advcfl_W_hf_max              =   1.7267598533283E-01
(PID.TID 0000.0001) %MON am_eta_mean                  =   2.4564375875515E+10
(PID.TID 0000.0001) %MON am_uZo_mean                  =   3.1471288481712E+11
(PID.TID 0000.0001) %MON am_tot_mean                  =   3.3927726069263E+11
(PID.TID 0000.0001) %MON pe_b_mean                    =   3.9826343366939E+00
(PID.TID 0000.0001) %MON ke_max                       =   5.4637247213393E+03
(PID.TID 0000.0001) %MON ke_mean                      =   1.5829974921077E+02
(PID.TID 0000.0001) %MON ke_vol                       =   5.0995454902520E+19
(PID.TID 0000.0001) %MON vort_r_min                   =  -2.8414385503129E-04
(PID.TID 0000.0001) %MON vort_r_max                   =   1.3723956699547E-04
(PID.TID 0000.0001) %MON vort_a_mean                  =  -1.0785274904427E-19
(PID.TID 0000.0001) %MON vort_a_sd                    =   8.8886758436232E-05
(PID.TID 0000.0001) %MON vort_p_mean                  =  -1.0785274904427E-19
(PID.TID 0000.0001) %MON vort_p_sd                    =   8.8886758436232E-05
(PID.TID 0000.0001) %MON surfExpan_theta_mean         =  -3.6729848982399E-03
(PID.TID 0000.0001) %MON surfExpan_salt_mean          =  -1.8360859728740E-03
(PID.TID 0000.0001) %MON surfExpan_Heat_mean          =  -3.7044109897615E-01
(PID.TID 0000.0001) %MON En_Budget_T2PE_mean          =   1.8875073126308E+00
(PID.TID 0000.0001) // =======================================================
(PID.TID 0000.0001) // End MONITOR dynamic field statistics
(PID.TID 0000.0001) // =======================================================
(PID.TID 0000.0001) // =======================================================
(PID.TID 0000.0001) // Begin MONITOR Land statistics
(PID.TID 0000.0001) // =======================================================
(PID.TID 0000.0001) %MON land_time_sec                =   6.6749187000000E+11
(PID.TID 0000.0001) %MON land_SnwH_ave_G              =   3.8601732472616E-03
(PID.TID 0000.0001) %MON land_SnwH_ave_S              =   0.0000000000000E+00
(PID.TID 0000.0001) %MON land_SnwH_ave_T              =   0.0000000000000E+00
(PID.TID 0000.0001) %MON land_SnwH_ave_N              =   7.2294631785438E-03
(PID.TID 0000.0001) %MON land_SnwH_max_S              =   0.0000000000000E+00
(PID.TID 0000.0001) %MON land_SnwH_max_T              =   0.0000000000000E+00
(PID.TID 0000.0001) %MON land_SnwH_max_N              =   7.3267746465859E-02
(PID.TID 0000.0001) %MON land_Tsrf_ave_G              =   1.4909353711061E+01
(PID.TID 0000.0001) %MON land_Tsrf_ave_S              =   3.6709166286745E+01
(PID.TID 0000.0001) %MON land_Tsrf_ave_T              =   2.8323915106583E+01
(PID.TID 0000.0001) %MON land_Tsrf_ave_N              =   1.8191813289424E+00
(PID.TID 0000.0001) %MON land_Tsrf_min_S              =   3.1393875537116E+01
(PID.TID 0000.0001) %MON land_Tsrf_min_T              =   2.6226990002875E+01
(PID.TID 0000.0001) %MON land_Tsrf_min_N              =  -1.9910511892343E+01
(PID.TID 0000.0001) %MON land_Tsrf_max_S              =   4.1765214091466E+01
(PID.TID 0000.0001) %MON land_Tsrf_max_T              =   3.2395025556394E+01
(PID.TID 0000.0001) %MON land_Tsrf_max_N              =   2.7805929538370E+01
(PID.TID 0000.0001) %MON land_Tgr1_ave_G              =   1.4925179563814E+01
(PID.TID 0000.0001) %MON land_Tgr1_ave_S              =   3.6709166286745E+01
(PID.TID 0000.0001) %MON land_Tgr1_ave_T              =   2.8323915106583E+01
(PID.TID 0000.0001) %MON land_Tgr1_ave_N              =   1.8488205219048E+00
(PID.TID 0000.0001) %MON land_Tgr1_min_S              =   3.1393875537116E+01
(PID.TID 0000.0001) %MON land_Tgr1_min_T              =   2.6226990002875E+01
(PID.TID 0000.0001) %MON land_Tgr1_min_N              =  -1.9883664422546E+01
(PID.TID 0000.0001) %MON land_Tgr1_max_S              =   4.1765214091466E+01
(PID.TID 0000.0001) %MON land_Tgr1_max_T              =   3.2395025556394E+01
(PID.TID 0000.0001) %MON land_Tgr1_max_N              =   2.7805929538370E+01
(PID.TID 0000.0001) %MON land_Tgr2_ave_G              =   1.8543806494431E+01
(PID.TID 0000.0001) %MON land_Tgr2_ave_S              =   2.5517517796057E+01
(PID.TID 0000.0001) %MON land_Tgr2_ave_T              =   2.8639997827840E+01
(PID.TID 0000.0001) %MON land_Tgr2_ave_N              =   1.0245944384065E+01
(PID.TID 0000.0001) %MON land_Tgr2_min_S              =   2.1487120317082E+01
(PID.TID 0000.0001) %MON land_Tgr2_min_T              =   2.7869975341307E+01
(PID.TID 0000.0001) %MON land_Tgr2_min_N              =  -3.5057556213092E+00
(PID.TID 0000.0001) %MON land_Tgr2_max_S              =   2.8435636786254E+01
(PID.TID 0000.0001) %MON land_Tgr2_max_T              =   3.0666970923521E+01
(PID.TID 0000.0001) %MON land_Tgr2_max_N              =   3.1148757667833E+01
(PID.TID 0000.0001) %MON land_TotEnerg_G              =   1.0747214719164E+21
(PID.TID 0000.0001) %MON land_TotEnerg_S              =   1.3507168962954E+20
(PID.TID 0000.0001) %MON land_TotEnerg_T              =   9.7288631831863E+20
(PID.TID 0000.0001) %MON land_TotEnerg_N              =  -3.3236536031777E+19
(PID.TID 0000.0001) %MON land_grdW_ave_G              =   7.0712318094901E-01
(PID.TID 0000.0001) %MON land_grdW_ave_S              =   1.2700655175805E-01
(PID.TID 0000.0001) %MON land_grdW_ave_T              =   7.6770768278834E-01
(PID.TID 0000.0001) %MON land_grdW_ave_N              =   7.5979992337400E-01
(PID.TID 0000.0001) %MON land_grdW_min_S              =   1.4305545248761E-02
(PID.TID 0000.0001) %MON land_grdW_min_T              =   1.3970945446340E-01
(PID.TID 0000.0001) %MON land_grdW_min_N              =   4.3968299967891E-02
(PID.TID 0000.0001) // =======================================================
(PID.TID 0000.0001) // End MONITOR Land statistics
(PID.TID 0000.0001) // =======================================================
(PID.TID 0000.0001) // =======================================================
(PID.TID 0000.0001) // Begin MONITOR Therm.SeaIce statistics
(PID.TID 0000.0001) // =======================================================
(PID.TID 0000.0001) %MON thSI_time_sec                =   6.6749187000000E+11
(PID.TID 0000.0001) %MON thSI_Ice_Area_G              =   4.9744721239237E+13
(PID.TID 0000.0001) %MON thSI_Ice_Area_S              =   4.9744721239237E+13
(PID.TID 0000.0001) %MON thSI_Ice_Area_N              =   0.0000000000000E+00
(PID.TID 0000.0001) %MON thSI_IceH_ave_G              =   9.9225452352686E+00
(PID.TID 0000.0001) %MON thSI_IceH_ave_S              =   9.9225452352686E+00
(PID.TID 0000.0001) %MON thSI_IceH_ave_N              =   0.0000000000000E+00
(PID.TID 0000.0001) %MON thSI_IceH_max_S              =   2.2476393814794E+01
(PID.TID 0000.0001) %MON thSI_IceH_max_N              =   0.0000000000000E+00
(PID.TID 0000.0001) %MON thSI_SnwH_ave_G              =   4.7466781939190E-02
(PID.TID 0000.0001) %MON thSI_SnwH_ave_S              =   4.7466781939190E-02
(PID.TID 0000.0001) %MON thSI_SnwH_ave_N              =   0.0000000000000E+00
(PID.TID 0000.0001) %MON thSI_SnwH_max_S              =   3.1803671024979E-01
(PID.TID 0000.0001) %MON thSI_SnwH_max_N              =   0.0000000000000E+00
(PID.TID 0000.0001) %MON thSI_Tsrf_ave_G              =  -8.7835526670436E-01
(PID.TID 0000.0001) %MON thSI_Tsrf_ave_S              =  -8.7835526670436E-01
(PID.TID 0000.0001) %MON thSI_Tsrf_ave_N              =   0.0000000000000E+00
(PID.TID 0000.0001) %MON thSI_Tsrf_min_S              =  -8.7908204995491E+00
(PID.TID 0000.0001) %MON thSI_Tsrf_min_N              =   0.0000000000000E+00
(PID.TID 0000.0001) %MON thSI_Tsrf_max_S              =   0.0000000000000E+00
(PID.TID 0000.0001) %MON thSI_Tsrf_max_N              =   0.0000000000000E+00
(PID.TID 0000.0001) %MON thSI_Tic1_ave_G              =  -1.4088766938664E+01
(PID.TID 0000.0001) %MON thSI_Tic1_ave_S              =  -1.4088766938664E+01
(PID.TID 0000.0001) %MON thSI_Tic1_ave_N              =   0.0000000000000E+00
(PID.TID 0000.0001) %MON thSI_Tic1_min_S              =  -1.9917144328069E+01
(PID.TID 0000.0001) %MON thSI_Tic1_min_N              =   0.0000000000000E+00
(PID.TID 0000.0001) %MON thSI_Tic1_max_S              =  -1.5357604118557E-01
(PID.TID 0000.0001) %MON thSI_Tic1_max_N              =   0.0000000000000E+00
(PID.TID 0000.0001) %MON thSI_Tic2_ave_G              =  -6.1601011795480E+00
(PID.TID 0000.0001) %MON thSI_Tic2_ave_S              =  -6.1601011795480E+00
(PID.TID 0000.0001) %MON thSI_Tic2_ave_N              =   0.0000000000000E+00
(PID.TID 0000.0001) %MON thSI_Tic2_min_S              =  -7.6251790501111E+00
(PID.TID 0000.0001) %MON thSI_Tic2_min_N              =   0.0000000000000E+00
(PID.TID 0000.0001) %MON thSI_Tic2_max_S              =  -1.6393618309896E-02
(PID.TID 0000.0001) %MON thSI_Tic2_max_N              =   0.0000000000000E+00
(PID.TID 0000.0001) %MON thSI_TotEnerg_G              =  -1.5750157045793E+23
(PID.TID 0000.0001) // =======================================================
(PID.TID 0000.0001) // End MONITOR Therm.SeaIce statistics
(PID.TID 0000.0001) // =======================================================
 Compute Stats, Diag. #    187  SI_Fract  vol(   0 ): 5.100E+14  Parms: SM P    M1      
 Compute Stats, Diag. #    188  SI_Thick  vol(   0 ): 4.975E+13  Parms: SM PC   M1      
    use Counter Mate  #    187  SI_Fract  vol(   0 ): 5.100E+14 integral 4.975E+13
 Compute Stats, Diag. #    273  aim_pCO2  vol(   0 ): 5.100E+14  Parms: SM P    L1      
 Compute Stats, Diag. #    279  CPL_fCO2  vol(   0 ): 5.100E+14  Parms: SM      M1      
 Compute Stats, Diag. #    275  CPL_MxlD  vol(   0 ): 5.100E+14  Parms: SM      M1      
 Compute Stats, Diag. #    276  CPL_SST   vol(   0 ): 5.100E+14  Parms: SM      M1      
 Compute Stats, Diag. #    277  CPL_SSS   vol(   0 ): 5.100E+14  Parms: SM      M1      
 Compute Stats, Diag. #    278  CPL_Vel2  vol(   0 ): 5.100E+14  Parms: SM      M1      
 cg2d: Sum(rhs),rhsMax =  -2.18648347072303E-05  5.74159704293875E+03
(PID.TID 0000.0001)      cg2d_init_res =   1.18636467942596E+03
(PID.TID 0000.0001)      cg2d_iters(min,last) =      -1      23
(PID.TID 0000.0001)      cg2d_last_res =   3.79122800884653E-11
 cg3d: Sum(rhs),rhsMax =   1.67731713934804E-13  6.48386608364309E+00
(PID.TID 0000.0001)      cg3d_init_res =   8.29587294355704E-01
(PID.TID 0000.0001)      cg3d_iters (last) =                 11
(PID.TID 0000.0001)      cg3d_last_res =   9.59789637929662E-05
(PID.TID 0000.0001) // =======================================================
(PID.TID 0000.0001) // Begin MONITOR dynamic field statistics
(PID.TID 0000.0001) // =======================================================
(PID.TID 0000.0001) %MON time_tsnumber                =             556243226
(PID.TID 0000.0001) %MON time_secondsf                =   6.6749187120000E+11
(PID.TID 0000.0001) %MON dynstat_eta_max              =   2.2270884484989E+03
(PID.TID 0000.0001) %MON dynstat_eta_min              =  -4.4526895788670E+03
(PID.TID 0000.0001) %MON dynstat_eta_mean             =   6.2208974185329E-09
(PID.TID 0000.0001) %MON dynstat_eta_sd               =   9.7913845323381E+02
(PID.TID 0000.0001) %MON dynstat_eta_del2             =   4.3988005667952E+00
(PID.TID 0000.0001) %MON dynstat_uvel_max             =   7.7826519468046E+01
(PID.TID 0000.0001) %MON dynstat_uvel_min             =  -5.9414964679661E+01
(PID.TID 0000.0001) %MON dynstat_uvel_mean            =   1.8429137275397E+00
(PID.TID 0000.0001) %MON dynstat_uvel_sd              =   1.2392954853338E+01
(PID.TID 0000.0001) %MON dynstat_uvel_del2            =   4.8760892138846E-02
(PID.TID 0000.0001) %MON dynstat_vvel_max             =   1.0478808889423E+02
(PID.TID 0000.0001) %MON dynstat_vvel_min             =  -5.1444459942689E+01
(PID.TID 0000.0001) %MON dynstat_vvel_mean            =   1.7886725961942E+00
(PID.TID 0000.0001) %MON dynstat_vvel_sd              =   1.2513875821558E+01
(PID.TID 0000.0001) %MON dynstat_vvel_del2            =   4.8631283587670E-02
(PID.TID 0000.0001) %MON dynstat_wvel_max             =   1.2027724720578E+00
(PID.TID 0000.0001) %MON dynstat_wvel_min             =  -1.9726524282212E+00
(PID.TID 0000.0001) %MON dynstat_wvel_mean            =   1.9503592947564E-18
(PID.TID 0000.0001) %MON dynstat_wvel_sd              =   9.4124727301752E-02
(PID.TID 0000.0001) %MON dynstat_wvel_del2            =   1.5521275299724E-03
(PID.TID 0000.0001) %MON dynstat_theta_max            =   5.0224248781857E+02
(PID.TID 0000.0001) %MON dynstat_theta_min            =   2.6589214077715E+02
(PID.TID 0000.0001) %MON dynstat_theta_mean           =   3.3728744557846E+02
(PID.TID 0000.0001) %MON dynstat_theta_sd             =   4.8958240367181E+01
(PID.TID 0000.0001) %MON dynstat_theta_del2           =   2.7096461127734E-02
(PID.TID 0000.0001) %MON dynstat_salt_max             =   1.7745280880065E+01
(PID.TID 0000.0001) %MON dynstat_salt_min             =  -2.2668486244421E+00
(PID.TID 0000.0001) %MON dynstat_salt_mean            =   3.2318000938380E+00
(PID.TID 0000.0001) %MON dynstat_salt_sd              =   3.9627769344765E+00
(PID.TID 0000.0001) %MON dynstat_salt_del2            =   1.1965462903590E-02
(PID.TID 0000.0001) %MON trAdv_CFL_u_max              =   5.0938694400296E-01
(PID.TID 0000.0001) %MON trAdv_CFL_v_max              =   4.3444087341504E-01
(PID.TID 0000.0001) %MON trAdv_CFL_w_max              =   1.7732340228665E-01
(PID.TID 0000.0001) %MON advcfl_uvel_max              =   6.0081984447710E-01
(PID.TID 0000.0001) %MON advcfl_vvel_max              =   4.7025602826980E-01
(PID.TID 0000.0001) %MON advcfl_wvel_max              =   9.4687316554617E-02
(PID.TID 0000.0001) %MON advcfl_W_hf_max              =   1.4878308746267E-01
(PID.TID 0000.0001) %MON am_eta_mean                  =   2.4568389001585E+10
(PID.TID 0000.0001) %MON am_uZo_mean                  =   3.1471624216130E+11
(PID.TID 0000.0001) %MON am_tot_mean                  =   3.3928463116288E+11
(PID.TID 0000.0001) %MON pe_b_mean                    =   3.9821942762715E+00
(PID.TID 0000.0001) %MON ke_max                       =   5.4652864972319E+03
(PID.TID 0000.0001) %MON ke_mean                      =   1.5831599201745E+02
(PID.TID 0000.0001) %MON ke_vol                       =   5.0995454902520E+19
(PID.TID 0000.0001) %MON vort_r_min                   =  -2.7511873646444E-04
(PID.TID 0000.0001) %MON vort_r_max                   =   1.3786663567267E-04
(PID.TID 0000.0001) %MON vort_a_mean                  =   2.4511988419153E-21
(PID.TID 0000.0001) %MON vort_a_sd                    =   8.8889698467330E-05
(PID.TID 0000.0001) %MON vort_p_mean                  =   2.4511988419153E-21
(PID.TID 0000.0001) %MON vort_p_sd                    =   8.8889698467330E-05
(PID.TID 0000.0001) %MON surfExpan_theta_mean         =  -3.7758423443778E-03
(PID.TID 0000.0001) %MON surfExpan_salt_mean          =  -1.8867492787468E-03
(PID.TID 0000.0001) %MON surfExpan_Heat_mean          =  -3.8081484851252E-01
(PID.TID 0000.0001) %MON En_Budget_T2PE_mean          =   1.8917095822663E+00
(PID.TID 0000.0001) // =======================================================
(PID.TID 0000.0001) // End MONITOR dynamic field statistics
(PID.TID 0000.0001) // =======================================================
(PID.TID 0000.0001) // =======================================================
(PID.TID 0000.0001) // Begin MONITOR Land statistics
(PID.TID 0000.0001) // =======================================================
(PID.TID 0000.0001) %MON land_time_sec                =   6.6749187120000E+11
(PID.TID 0000.0001) %MON land_SnwH_ave_G              =   3.8627815594548E-03
(PID.TID 0000.0001) %MON land_SnwH_ave_S              =   0.0000000000000E+00
(PID.TID 0000.0001) %MON land_SnwH_ave_T              =   0.0000000000000E+00
(PID.TID 0000.0001) %MON land_SnwH_ave_N              =   7.2343481139473E-03
(PID.TID 0000.0001) %MON land_SnwH_max_S              =   0.0000000000000E+00
(PID.TID 0000.0001) %MON land_SnwH_max_T              =   0.0000000000000E+00
(PID.TID 0000.0001) %MON land_SnwH_max_N              =   7.3267533818199E-02
(PID.TID 0000.0001) %MON land_Tsrf_ave_G              =   1.4917349447398E+01
(PID.TID 0000.0001) %MON land_Tsrf_ave_S              =   3.6732734458233E+01
(PID.TID 0000.0001) %MON land_Tsrf_ave_T              =   2.8330819750040E+01
(PID.TID 0000.0001) %MON land_Tsrf_ave_N              =   1.8253840545045E+00
(PID.TID 0000.0001) %MON land_Tsrf_min_S              =   3.1385140122938E+01
(PID.TID 0000.0001) %MON land_Tsrf_min_T              =   2.6248394777346E+01
(PID.TID 0000.0001) %MON land_Tsrf_min_N              =  -1.9908594924715E+01
(PID.TID 0000.0001) %MON land_Tsrf_max_S              =   4.1804209666970E+01
(PID.TID 0000.0001) %MON land_Tsrf_max_T              =   3.2457181920947E+01
(PID.TID 0000.0001) %MON land_Tsrf_max_N              =   2.7750896956904E+01
(PID.TID 0000.0001) %MON land_Tgr1_ave_G              =   1.4931921727987E+01
(PID.TID 0000.0001) %MON land_Tgr1_ave_S              =   3.6732734458233E+01
(PID.TID 0000.0001) %MON land_Tgr1_ave_T              =   2.8330819750040E+01
(PID.TID 0000.0001) %MON land_Tgr1_ave_N              =   1.8526755150682E+00
(PID.TID 0000.0001) %MON land_Tgr1_min_S              =   3.1385140122938E+01
(PID.TID 0000.0001) %MON land_Tgr1_min_T              =   2.6248394777346E+01
(PID.TID 0000.0001) %MON land_Tgr1_min_N              =  -1.9881570552546E+01
(PID.TID 0000.0001) %MON land_Tgr1_max_S              =   4.1804209666970E+01
(PID.TID 0000.0001) %MON land_Tgr1_max_T              =   3.2457181920947E+01
(PID.TID 0000.0001) %MON land_Tgr1_max_N              =   2.7750896956904E+01
(PID.TID 0000.0001) %MON land_Tgr2_ave_G              =   1.8543729150564E+01
(PID.TID 0000.0001) %MON land_Tgr2_ave_S              =   2.5518101965085E+01
(PID.TID 0000.0001) %MON land_Tgr2_ave_T              =   2.8639985542515E+01
(PID.TID 0000.0001) %MON land_Tgr2_ave_N              =   1.0245711987708E+01
(PID.TID 0000.0001) %MON land_Tgr2_min_S              =   2.1487801680005E+01
(PID.TID 0000.0001) %MON land_Tgr2_min_T              =   2.7869986058795E+01
(PID.TID 0000.0001) %MON land_Tgr2_min_N              =  -3.5061652158142E+00
(PID.TID 0000.0001) %MON land_Tgr2_max_S              =   2.8436096214670E+01
(PID.TID 0000.0001) %MON land_Tgr2_max_T              =   3.0666877840964E+01
(PID.TID 0000.0001) %MON land_Tgr2_max_N              =   3.1148597145649E+01
(PID.TID 0000.0001) %MON land_TotEnerg_G              =   1.0747135969233E+21
(PID.TID 0000.0001) %MON land_TotEnerg_S              =   1.3507797594396E+20
(PID.TID 0000.0001) %MON land_TotEnerg_T              =   9.7288378198443E+20
(PID.TID 0000.0001) %MON land_TotEnerg_N              =  -3.3248161005115E+19
(PID.TID 0000.0001) %MON land_grdW_ave_G              =   7.0711815355701E-01
(PID.TID 0000.0001) %MON land_grdW_ave_S              =   1.2701094565947E-01
(PID.TID 0000.0001) %MON land_grdW_ave_T              =   7.6769326916674E-01
(PID.TID 0000.0001) %MON land_grdW_ave_N              =   7.5979999001948E-01
(PID.TID 0000.0001) %MON land_grdW_min_S              =   1.4249940156980E-02
(PID.TID 0000.0001) %MON land_grdW_min_T              =   1.4063607969837E-01
(PID.TID 0000.0001) %MON land_grdW_min_N              =   4.3926736708994E-02
(PID.TID 0000.0001) // =======================================================
(PID.TID 0000.0001) // End MONITOR Land statistics
(PID.TID 0000.0001) // =======================================================
(PID.TID 0000.0001) // =======================================================
(PID.TID 0000.0001) // Begin MONITOR Therm.SeaIce statistics
(PID.TID 0000.0001) // =======================================================
(PID.TID 0000.0001) %MON thSI_time_sec                =   6.6749187120000E+11
(PID.TID 0000.0001) %MON thSI_Ice_Area_G              =   4.9743291253627E+13
(PID.TID 0000.0001) %MON thSI_Ice_Area_S              =   4.9743291253627E+13
(PID.TID 0000.0001) %MON thSI_Ice_Area_N              =   0.0000000000000E+00
(PID.TID 0000.0001) %MON thSI_IceH_ave_G              =   9.9227498582422E+00
(PID.TID 0000.0001) %MON thSI_IceH_ave_S              =   9.9227498582422E+00
(PID.TID 0000.0001) %MON thSI_IceH_ave_N              =   0.0000000000000E+00
(PID.TID 0000.0001) %MON thSI_IceH_max_S              =   2.2476399270418E+01
(PID.TID 0000.0001) %MON thSI_IceH_max_N              =   0.0000000000000E+00
(PID.TID 0000.0001) %MON thSI_SnwH_ave_G              =   4.7390341884676E-02
(PID.TID 0000.0001) %MON thSI_SnwH_ave_S              =   4.7390341884676E-02
(PID.TID 0000.0001) %MON thSI_SnwH_ave_N              =   0.0000000000000E+00
(PID.TID 0000.0001) %MON thSI_SnwH_max_S              =   3.1782651554378E-01
(PID.TID 0000.0001) %MON thSI_SnwH_max_N              =   0.0000000000000E+00
(PID.TID 0000.0001) %MON thSI_Tsrf_ave_G              =  -8.7964550568774E-01
(PID.TID 0000.0001) %MON thSI_Tsrf_ave_S              =  -8.7964550568774E-01
(PID.TID 0000.0001) %MON thSI_Tsrf_ave_N              =   0.0000000000000E+00
(PID.TID 0000.0001) %MON thSI_Tsrf_min_S              =  -8.7878380755481E+00
(PID.TID 0000.0001) %MON thSI_Tsrf_min_N              =   0.0000000000000E+00
(PID.TID 0000.0001) %MON thSI_Tsrf_max_S              =   0.0000000000000E+00
(PID.TID 0000.0001) %MON thSI_Tsrf_max_N              =   0.0000000000000E+00
(PID.TID 0000.0001) %MON thSI_Tic1_ave_G              =  -1.4088054439367E+01
(PID.TID 0000.0001) %MON thSI_Tic1_ave_S              =  -1.4088054439367E+01
(PID.TID 0000.0001) %MON thSI_Tic1_ave_N              =   0.0000000000000E+00
(PID.TID 0000.0001) %MON thSI_Tic1_min_S              =  -1.9916696177156E+01
(PID.TID 0000.0001) %MON thSI_Tic1_min_N              =   0.0000000000000E+00
(PID.TID 0000.0001) %MON thSI_Tic1_max_S              =  -1.5399095200920E-01
(PID.TID 0000.0001) %MON thSI_Tic1_max_N              =   0.0000000000000E+00
(PID.TID 0000.0001) %MON thSI_Tic2_ave_G              =  -6.1600460329481E+00
(PID.TID 0000.0001) %MON thSI_Tic2_ave_S              =  -6.1600460329481E+00
(PID.TID 0000.0001) %MON thSI_Tic2_ave_N              =   0.0000000000000E+00
(PID.TID 0000.0001) %MON thSI_Tic2_min_S              =  -7.6251810755234E+00
(PID.TID 0000.0001) %MON thSI_Tic2_min_N              =   0.0000000000000E+00
(PID.TID 0000.0001) %MON thSI_Tic2_max_S              =  -1.1562915970988E-02
(PID.TID 0000.0001) %MON thSI_Tic2_max_N              =   0.0000000000000E+00
(PID.TID 0000.0001) %MON thSI_TotEnerg_G              =  -1.5749936807913E+23
(PID.TID 0000.0001) // =======================================================
(PID.TID 0000.0001) // End MONITOR Therm.SeaIce statistics
(PID.TID 0000.0001) // =======================================================
 cg2d: Sum(rhs),rhsMax =  -2.18647764995694E-05  5.82965958338387E+03
(PID.TID 0000.0001)      cg2d_init_res =   1.18180791367282E+03
(PID.TID 0000.0001)      cg2d_iters(min,last) =      -1      23
(PID.TID 0000.0001)      cg2d_last_res =   3.78619200484790E-11
 cg3d: Sum(rhs),rhsMax =   1.10983271184306E-13  6.13973678338094E+00
(PID.TID 0000.0001)      cg3d_init_res =   8.69034215160077E-01
(PID.TID 0000.0001)      cg3d_iters (last) =                 12
(PID.TID 0000.0001)      cg3d_last_res =   4.98556462658107E-05
(PID.TID 0000.0001) // =======================================================
(PID.TID 0000.0001) // Begin MONITOR dynamic field statistics
(PID.TID 0000.0001) // =======================================================
(PID.TID 0000.0001) %MON time_tsnumber                =             556243227
(PID.TID 0000.0001) %MON time_secondsf                =   6.6749187240000E+11
(PID.TID 0000.0001) %MON dynstat_eta_max              =   2.2261292087409E+03
(PID.TID 0000.0001) %MON dynstat_eta_min              =  -4.4627317039232E+03
(PID.TID 0000.0001) %MON dynstat_eta_mean             =   6.2207946078018E-09
(PID.TID 0000.0001) %MON dynstat_eta_sd               =   9.7907465615956E+02
(PID.TID 0000.0001) %MON dynstat_eta_del2             =   4.4036277900570E+00
(PID.TID 0000.0001) %MON dynstat_uvel_max             =   7.9522165021046E+01
(PID.TID 0000.0001) %MON dynstat_uvel_min             =  -5.9293913521895E+01
(PID.TID 0000.0001) %MON dynstat_uvel_mean            =   1.8434012975299E+00
(PID.TID 0000.0001) %MON dynstat_uvel_sd              =   1.2392147885940E+01
(PID.TID 0000.0001) %MON dynstat_uvel_del2            =   4.8717536362523E-02
(PID.TID 0000.0001) %MON dynstat_vvel_max             =   1.0494607528637E+02
(PID.TID 0000.0001) %MON dynstat_vvel_min             =  -5.1318929967576E+01
(PID.TID 0000.0001) %MON dynstat_vvel_mean            =   1.7883795599251E+00
(PID.TID 0000.0001) %MON dynstat_vvel_sd              =   1.2516020708551E+01
(PID.TID 0000.0001) %MON dynstat_vvel_del2            =   4.8784131587517E-02
(PID.TID 0000.0001) %MON dynstat_wvel_max             =   1.2347888586186E+00
(PID.TID 0000.0001) %MON dynstat_wvel_min             =  -2.0687082714825E+00
(PID.TID 0000.0001) %MON dynstat_wvel_mean            =  -4.8334991217875E-18
(PID.TID 0000.0001) %MON dynstat_wvel_sd              =   9.4273606669000E-02
(PID.TID 0000.0001) %MON dynstat_wvel_del2            =   1.5668479427421E-03
(PID.TID 0000.0001) %MON dynstat_theta_max            =   5.0224478135366E+02
(PID.TID 0000.0001) %MON dynstat_theta_min            =   2.6587728286908E+02
(PID.TID 0000.0001) %MON dynstat_theta_mean           =   3.3728682781602E+02
(PID.TID 0000.0001) %MON dynstat_theta_sd             =   4.8958460368017E+01
(PID.TID 0000.0001) %MON dynstat_theta_del2           =   2.7099564745236E-02
(PID.TID 0000.0001) %MON dynstat_salt_max             =   1.7768794746771E+01
(PID.TID 0000.0001) %MON dynstat_salt_min             =  -2.3089680712054E+00
(PID.TID 0000.0001) %MON dynstat_salt_mean            =   3.2317729854559E+00
(PID.TID 0000.0001) %MON dynstat_salt_sd              =   3.9627209876552E+00
(PID.TID 0000.0001) %MON dynstat_salt_del2            =   1.1966755772144E-02
(PID.TID 0000.0001) %MON trAdv_CFL_u_max              =   5.0780542297433E-01
(PID.TID 0000.0001) %MON trAdv_CFL_v_max              =   4.4420567447168E-01
(PID.TID 0000.0001) %MON trAdv_CFL_w_max              =   1.5283090740824E-01
(PID.TID 0000.0001) %MON advcfl_uvel_max              =   6.1391020884653E-01
(PID.TID 0000.0001) %MON advcfl_vvel_max              =   4.7125134432600E-01
(PID.TID 0000.0001) %MON advcfl_wvel_max              =   9.9297997031159E-02
(PID.TID 0000.0001) %MON advcfl_W_hf_max              =   1.4739762504423E-01
(PID.TID 0000.0001) %MON am_eta_mean                  =   2.4571196050085E+10
(PID.TID 0000.0001) %MON am_uZo_mean                  =   3.1472055025085E+11
(PID.TID 0000.0001) %MON am_tot_mean                  =   3.3929174630093E+11
(PID.TID 0000.0001) %MON pe_b_mean                    =   3.9816753627990E+00
(PID.TID 0000.0001) %MON ke_max                       =   5.4612749849639E+03
(PID.TID 0000.0001) %MON ke_mean                      =   1.5833252846802E+02
(PID.TID 0000.0001) %MON ke_vol                       =   5.0995454902520E+19
(PID.TID 0000.0001) %MON vort_r_min                   =  -2.5553562232104E-04
(PID.TID 0000.0001) %MON vort_r_max                   =   2.0985575821681E-04
(PID.TID 0000.0001) %MON vort_a_mean                  =  -2.6963187261068E-20
(PID.TID 0000.0001) %MON vort_a_sd                    =   8.8893264282613E-05
(PID.TID 0000.0001) %MON vort_p_mean                  =  -2.6963187261068E-20
(PID.TID 0000.0001) %MON vort_p_sd                    =   8.8893264282613E-05
(PID.TID 0000.0001) %MON surfExpan_theta_mean         =  -3.8899578973375E-03
(PID.TID 0000.0001) %MON surfExpan_salt_mean          =  -1.9421847357490E-03
(PID.TID 0000.0001) %MON surfExpan_Heat_mean          =  -3.9232404117729E-01
(PID.TID 0000.0001) %MON En_Budget_T2PE_mean          =   1.8953252618366E+00
(PID.TID 0000.0001) // =======================================================
(PID.TID 0000.0001) // End MONITOR dynamic field statistics
(PID.TID 0000.0001) // =======================================================
(PID.TID 0000.0001) // =======================================================
(PID.TID 0000.0001) // Begin MONITOR Land statistics
(PID.TID 0000.0001) // =======================================================
(PID.TID 0000.0001) %MON land_time_sec                =   6.6749187240000E+11
(PID.TID 0000.0001) %MON land_SnwH_ave_G              =   3.8654036374721E-03
(PID.TID 0000.0001) %MON land_SnwH_ave_S              =   0.0000000000000E+00
(PID.TID 0000.0001) %MON land_SnwH_ave_T              =   0.0000000000000E+00
(PID.TID 0000.0001) %MON land_SnwH_ave_N              =   7.2392588304523E-03
(PID.TID 0000.0001) %MON land_SnwH_max_S              =   0.0000000000000E+00
(PID.TID 0000.0001) %MON land_SnwH_max_T              =   0.0000000000000E+00
(PID.TID 0000.0001) %MON land_SnwH_max_N              =   7.3267296460789E-02
(PID.TID 0000.0001) %MON land_Tsrf_ave_G              =   1.4924526597920E+01
(PID.TID 0000.0001) %MON land_Tsrf_ave_S              =   3.6748544158546E+01
(PID.TID 0000.0001) %MON land_Tsrf_ave_T              =   2.8337566752018E+01
(PID.TID 0000.0001) %MON land_Tsrf_ave_N              =   1.8314435533817E+00
(PID.TID 0000.0001) %MON land_Tsrf_min_S              =   3.1375730511262E+01
(PID.TID 0000.0001) %MON land_Tsrf_min_T              =   2.6270625212312E+01
(PID.TID 0000.0001) %MON land_Tsrf_min_N              =  -1.9906836194369E+01
(PID.TID 0000.0001) %MON land_Tsrf_max_S              =   4.1841216105156E+01
(PID.TID 0000.0001) %MON land_Tsrf_max_T              =   3.2518517714973E+01
(PID.TID 0000.0001) %MON land_Tsrf_max_N              =   2.7695321984934E+01
(PID.TID 0000.0001) %MON land_Tgr1_ave_G              =   1.4937746946318E+01
(PID.TID 0000.0001) %MON land_Tgr1_ave_S              =   3.6748544158546E+01
(PID.TID 0000.0001) %MON land_Tgr1_ave_T              =   2.8337566752018E+01
(PID.TID 0000.0001) %MON land_Tgr1_ave_N              =   1.8562030695550E+00
(PID.TID 0000.0001) %MON land_Tgr1_min_S              =   3.1375730511262E+01
(PID.TID 0000.0001) %MON land_Tgr1_min_T              =   2.6270625212312E+01
(PID.TID 0000.0001) %MON land_Tgr1_min_N              =  -1.9879611901870E+01
(PID.TID 0000.0001) %MON land_Tgr1_max_S              =   4.1841216105156E+01
(PID.TID 0000.0001) %MON land_Tgr1_max_T              =   3.2518517714973E+01
(PID.TID 0000.0001) %MON land_Tgr1_max_N              =   2.7695321984934E+01
(PID.TID 0000.0001) %MON land_Tgr2_ave_G              =   1.8543652160888E+01
(PID.TID 0000.0001) %MON land_Tgr2_ave_S              =   2.5518686913178E+01
(PID.TID 0000.0001) %MON land_Tgr2_ave_T              =   2.8639973534512E+01
(PID.TID 0000.0001) %MON land_Tgr2_ave_N              =   1.0245479929972E+01
(PID.TID 0000.0001) %MON land_Tgr2_min_S              =   2.1488478417925E+01
(PID.TID 0000.0001) %MON land_Tgr2_min_T              =   2.7869996957392E+01
(PID.TID 0000.0001) %MON land_Tgr2_min_N              =  -3.5065753617648E+00
(PID.TID 0000.0001) %MON land_Tgr2_max_S              =   2.8436556689971E+01
(PID.TID 0000.0001) %MON land_Tgr2_max_T              =   3.0666784293283E+01
(PID.TID 0000.0001) %MON land_Tgr2_max_N              =   3.1148434021044E+01
(PID.TID 0000.0001) %MON land_TotEnerg_G              =   1.0747044483456E+21
(PID.TID 0000.0001) %MON land_TotEnerg_S              =   1.3508338724206E+20
(PID.TID 0000.0001) %MON land_TotEnerg_T              =   9.7288120029911E+20
(PID.TID 0000.0001) %MON land_TotEnerg_N              =  -3.3260139195544E+19
(PID.TID 0000.0001) %MON land_grdW_ave_G              =   7.0711330162567E-01
(PID.TID 0000.0001) %MON land_grdW_ave_S              =   1.2701572915365E-01
(PID.TID 0000.0001) %MON land_grdW_ave_T              =   7.6767907145036E-01
(PID.TID 0000.0001) %MON land_grdW_ave_N              =   7.5980016820882E-01
(PID.TID 0000.0001) %MON land_grdW_min_S              =   1.4195024297516E-02
(PID.TID 0000.0001) %MON land_grdW_min_T              =   1.4158082928536E-01
(PID.TID 0000.0001) %MON land_grdW_min_N              =   4.3886297233395E-02
(PID.TID 0000.0001) // =======================================================
(PID.TID 0000.0001) // End MONITOR Land statistics
(PID.TID 0000.0001) // =======================================================
(PID.TID 0000.0001) // =======================================================
(PID.TID 0000.0001) // Begin MONITOR Therm.SeaIce statistics
(PID.TID 0000.0001) // =======================================================
(PID.TID 0000.0001) %MON thSI_time_sec                =   6.6749187240000E+11
(PID.TID 0000.0001) %MON thSI_Ice_Area_G              =   4.9741862776525E+13
(PID.TID 0000.0001) %MON thSI_Ice_Area_S              =   4.9741862776525E+13
(PID.TID 0000.0001) %MON thSI_Ice_Area_N              =   0.0000000000000E+00
(PID.TID 0000.0001) %MON thSI_IceH_ave_G              =   9.9229542399803E+00
(PID.TID 0000.0001) %MON thSI_IceH_ave_S              =   9.9229542399803E+00
(PID.TID 0000.0001) %MON thSI_IceH_ave_N              =   0.0000000000000E+00
(PID.TID 0000.0001) %MON thSI_IceH_max_S              =   2.2476404726042E+01
(PID.TID 0000.0001) %MON thSI_IceH_max_N              =   0.0000000000000E+00
(PID.TID 0000.0001) %MON thSI_SnwH_ave_G              =   4.7314045260638E-02
(PID.TID 0000.0001) %MON thSI_SnwH_ave_S              =   4.7314045260638E-02
(PID.TID 0000.0001) %MON thSI_SnwH_ave_N              =   0.0000000000000E+00
(PID.TID 0000.0001) %MON thSI_SnwH_max_S              =   3.1761497509937E-01
(PID.TID 0000.0001) %MON thSI_SnwH_max_N              =   0.0000000000000E+00
(PID.TID 0000.0001) %MON thSI_Tsrf_ave_G              =  -8.8357679877117E-01
(PID.TID 0000.0001) %MON thSI_Tsrf_ave_S              =  -8.8357679877117E-01
(PID.TID 0000.0001) %MON thSI_Tsrf_ave_N              =   0.0000000000000E+00
(PID.TID 0000.0001) %MON thSI_Tsrf_min_S              =  -8.7822777561137E+00
(PID.TID 0000.0001) %MON thSI_Tsrf_min_N              =   0.0000000000000E+00
(PID.TID 0000.0001) %MON thSI_Tsrf_max_S              =   0.0000000000000E+00
(PID.TID 0000.0001) %MON thSI_Tsrf_max_N              =   0.0000000000000E+00
(PID.TID 0000.0001) %MON thSI_Tic1_ave_G              =  -1.4087342112725E+01
(PID.TID 0000.0001) %MON thSI_Tic1_ave_S              =  -1.4087342112725E+01
(PID.TID 0000.0001) %MON thSI_Tic1_ave_N              =   0.0000000000000E+00
(PID.TID 0000.0001) %MON thSI_Tic1_min_S              =  -1.9916247960419E+01
(PID.TID 0000.0001) %MON thSI_Tic1_min_N              =   0.0000000000000E+00
(PID.TID 0000.0001) %MON thSI_Tic1_max_S              =  -1.5398599906763E-01
(PID.TID 0000.0001) %MON thSI_Tic1_max_N              =   0.0000000000000E+00
(PID.TID 0000.0001) %MON thSI_Tic2_ave_G              =  -6.1599904175629E+00
(PID.TID 0000.0001) %MON thSI_Tic2_ave_S              =  -6.1599904175629E+00
(PID.TID 0000.0001) %MON thSI_Tic2_ave_N              =   0.0000000000000E+00
(PID.TID 0000.0001) %MON thSI_Tic2_min_S              =  -7.6251830960786E+00
(PID.TID 0000.0001) %MON thSI_Tic2_min_N              =   0.0000000000000E+00
(PID.TID 0000.0001) %MON thSI_Tic2_max_S              =  -1.9048564225348E-02
(PID.TID 0000.0001) %MON thSI_Tic2_max_N              =   0.0000000000000E+00
(PID.TID 0000.0001) %MON thSI_TotEnerg_G              =  -1.5749716793380E+23
(PID.TID 0000.0001) // =======================================================
(PID.TID 0000.0001) // End MONITOR Therm.SeaIce statistics
(PID.TID 0000.0001) // =======================================================
(PID.TID 0000.0001)   Exporting atmospheric surf fluxes at iter= 556243227
(PID.TID 0000.0001)   Importing  oceanic surface fields at iter= 556243227
 cg2d: Sum(rhs),rhsMax =  -2.18651257455349E-05  5.90531402050355E+03
(PID.TID 0000.0001)      cg2d_init_res =   1.15703977546044E+03
(PID.TID 0000.0001)      cg2d_iters(min,last) =      -1      23
(PID.TID 0000.0001)      cg2d_last_res =   3.94840760420360E-11
 cg3d: Sum(rhs),rhsMax =   2.29399832463173E-14  5.93195852256424E+00
(PID.TID 0000.0001)      cg3d_init_res =   8.59676645797452E-01
(PID.TID 0000.0001)      cg3d_iters (last) =                 12
(PID.TID 0000.0001)      cg3d_last_res =   4.95413407008392E-05
(PID.TID 0000.0001) // =======================================================
(PID.TID 0000.0001) // Begin MONITOR dynamic field statistics
(PID.TID 0000.0001) // =======================================================
(PID.TID 0000.0001) %MON time_tsnumber                =             556243228
(PID.TID 0000.0001) %MON time_secondsf                =   6.6749187360000E+11
(PID.TID 0000.0001) %MON dynstat_eta_max              =   2.2251580444964E+03
(PID.TID 0000.0001) %MON dynstat_eta_min              =  -4.4941768809365E+03
(PID.TID 0000.0001) %MON dynstat_eta_mean             =   6.2207432024363E-09
(PID.TID 0000.0001) %MON dynstat_eta_sd               =   9.7900005593395E+02
(PID.TID 0000.0001) %MON dynstat_eta_del2             =   4.4086092368031E+00
(PID.TID 0000.0001) %MON dynstat_uvel_max             =   8.1144803480172E+01
(PID.TID 0000.0001) %MON dynstat_uvel_min             =  -5.9161531911460E+01
(PID.TID 0000.0001) %MON dynstat_uvel_mean            =   1.8438794440919E+00
(PID.TID 0000.0001) %MON dynstat_uvel_sd              =   1.2391489761491E+01
(PID.TID 0000.0001) %MON dynstat_uvel_del2            =   4.8692718029889E-02
(PID.TID 0000.0001) %MON dynstat_vvel_max             =   1.0501751074197E+02
(PID.TID 0000.0001) %MON dynstat_vvel_min             =  -5.1182827312167E+01
(PID.TID 0000.0001) %MON dynstat_vvel_mean            =   1.7880527722148E+00
(PID.TID 0000.0001) %MON dynstat_vvel_sd              =   1.2518040974194E+01
(PID.TID 0000.0001) %MON dynstat_vvel_del2            =   4.8887317484024E-02
(PID.TID 0000.0001) %MON dynstat_wvel_max             =   1.3866831639017E+00
(PID.TID 0000.0001) %MON dynstat_wvel_min             =  -2.0775478219208E+00
(PID.TID 0000.0001) %MON dynstat_wvel_mean            =  -5.9358761144759E-19
(PID.TID 0000.0001) %MON dynstat_wvel_sd              =   9.4440280478323E-02
(PID.TID 0000.0001) %MON dynstat_wvel_del2            =   1.5807487426568E-03
(PID.TID 0000.0001) %MON dynstat_theta_max            =   5.0224613739355E+02
(PID.TID 0000.0001) %MON dynstat_theta_min            =   2.6586244245963E+02
(PID.TID 0000.0001) %MON dynstat_theta_mean           =   3.3728616233425E+02
(PID.TID 0000.0001) %MON dynstat_theta_sd             =   4.8958697895662E+01
(PID.TID 0000.0001) %MON dynstat_theta_del2           =   2.7104775646306E-02
(PID.TID 0000.0001) %MON dynstat_salt_max             =   1.7792033855790E+01
(PID.TID 0000.0001) %MON dynstat_salt_min             =  -2.3482096504388E+00
(PID.TID 0000.0001) %MON dynstat_salt_mean            =   3.2317625696204E+00
(PID.TID 0000.0001) %MON dynstat_salt_sd              =   3.9626915292754E+00
(PID.TID 0000.0001) %MON dynstat_salt_del2            =   1.1965449197725E-02
(PID.TID 0000.0001) %MON trAdv_CFL_u_max              =   5.1005224785924E-01
(PID.TID 0000.0001) %MON trAdv_CFL_v_max              =   4.5388380708872E-01
(PID.TID 0000.0001) %MON trAdv_CFL_w_max              =   1.1936196601172E-01
(PID.TID 0000.0001) %MON advcfl_uvel_max              =   6.2643695928222E-01
(PID.TID 0000.0001) %MON advcfl_vvel_max              =   4.7289017884540E-01
(PID.TID 0000.0001) %MON advcfl_wvel_max              =   9.9722295452197E-02
(PID.TID 0000.0001) %MON advcfl_W_hf_max              =   1.4525904827954E-01
(PID.TID 0000.0001) %MON am_eta_mean                  =   2.4572732531780E+10
(PID.TID 0000.0001) %MON am_uZo_mean                  =   3.1472580943125E+11
(PID.TID 0000.0001) %MON am_tot_mean                  =   3.3929854196303E+11
(PID.TID 0000.0001) %MON pe_b_mean                    =   3.9810686213983E+00
(PID.TID 0000.0001) %MON ke_max                       =   5.4520064581600E+03
(PID.TID 0000.0001) %MON ke_mean                      =   1.5834930067037E+02
(PID.TID 0000.0001) %MON ke_vol                       =   5.0995454902520E+19
(PID.TID 0000.0001) %MON vort_r_min                   =  -2.4021267412203E-04
(PID.TID 0000.0001) %MON vort_r_max                   =   2.8338989634802E-04
(PID.TID 0000.0001) %MON vort_a_mean                  =  -6.6182368731712E-20
(PID.TID 0000.0001) %MON vort_a_sd                    =   8.8897106906921E-05
(PID.TID 0000.0001) %MON vort_p_mean                  =  -6.6182368731712E-20
(PID.TID 0000.0001) %MON vort_p_sd                    =   8.8897106906921E-05
(PID.TID 0000.0001) %MON surfExpan_theta_mean         =  -3.9956893982489E-03
(PID.TID 0000.0001) %MON surfExpan_salt_mean          =  -1.9923913553544E-03
(PID.TID 0000.0001) %MON surfExpan_Heat_mean          =  -4.0298765523484E-01
(PID.TID 0000.0001) %MON En_Budget_T2PE_mean          =   1.8981470384300E+00
(PID.TID 0000.0001) // =======================================================
(PID.TID 0000.0001) // End MONITOR dynamic field statistics
(PID.TID 0000.0001) // =======================================================
(PID.TID 0000.0001) // =======================================================
(PID.TID 0000.0001) // Begin MONITOR Land statistics
(PID.TID 0000.0001) // =======================================================
(PID.TID 0000.0001) %MON land_time_sec                =   6.6749187360000E+11
(PID.TID 0000.0001) %MON land_SnwH_ave_G              =   3.8680331797142E-03
(PID.TID 0000.0001) %MON land_SnwH_ave_S              =   0.0000000000000E+00
(PID.TID 0000.0001) %MON land_SnwH_ave_T              =   0.0000000000000E+00
(PID.TID 0000.0001) %MON land_SnwH_ave_N              =   7.2441835262103E-03
(PID.TID 0000.0001) %MON land_SnwH_max_S              =   0.0000000000000E+00
(PID.TID 0000.0001) %MON land_SnwH_max_T              =   0.0000000000000E+00
(PID.TID 0000.0001) %MON land_SnwH_max_N              =   7.3267038575133E-02
(PID.TID 0000.0001) %MON land_Tsrf_ave_G              =   1.4931380050783E+01
(PID.TID 0000.0001) %MON land_Tsrf_ave_S              =   3.6760836130476E+01
(PID.TID 0000.0001) %MON land_Tsrf_ave_T              =   2.8344126583313E+01
(PID.TID 0000.0001) %MON land_Tsrf_ave_N              =   1.8376089060746E+00
(PID.TID 0000.0001) %MON land_Tsrf_min_S              =   3.1365710930580E+01
(PID.TID 0000.0001) %MON land_Tsrf_min_T              =   2.6293665725362E+01
(PID.TID 0000.0001) %MON land_Tsrf_min_N              =  -1.9905238385427E+01
(PID.TID 0000.0001) %MON land_Tsrf_max_S              =   4.1876173898788E+01
(PID.TID 0000.0001) %MON land_Tsrf_max_T              =   3.2578915829851E+01
(PID.TID 0000.0001) %MON land_Tsrf_max_N              =   2.7639273374645E+01
(PID.TID 0000.0001) %MON land_Tgr1_ave_G              =   1.4943176397801E+01
(PID.TID 0000.0001) %MON land_Tgr1_ave_S              =   3.6760836130476E+01
(PID.TID 0000.0001) %MON land_Tgr1_ave_T              =   2.8344126583313E+01
(PID.TID 0000.0001) %MON land_Tgr1_ave_N              =   1.8597015042436E+00
(PID.TID 0000.0001) %MON land_Tgr1_min_S              =   3.1365710930580E+01
(PID.TID 0000.0001) %MON land_Tgr1_min_T              =   2.6293665725362E+01
(PID.TID 0000.0001) %MON land_Tgr1_min_N              =  -1.9877795365597E+01
(PID.TID 0000.0001) %MON land_Tgr1_max_S              =   4.1876173898788E+01
(PID.TID 0000.0001) %MON land_Tgr1_max_T              =   3.2578915829851E+01
(PID.TID 0000.0001) %MON land_Tgr1_max_N              =   2.7639273374645E+01
(PID.TID 0000.0001) %MON land_Tgr2_ave_G              =   1.8543575509315E+01
(PID.TID 0000.0001) %MON land_Tgr2_ave_S              =   2.5519272470900E+01
(PID.TID 0000.0001) %MON land_Tgr2_ave_T              =   2.8639961798553E+01
(PID.TID 0000.0001) %MON land_Tgr2_ave_N              =   1.0245248212381E+01
(PID.TID 0000.0001) %MON land_Tgr2_min_S              =   2.1489149884434E+01
(PID.TID 0000.0001) %MON land_Tgr2_min_T              =   2.7870008049147E+01
(PID.TID 0000.0001) %MON land_Tgr2_min_N              =  -3.5069860679690E+00
(PID.TID 0000.0001) %MON land_Tgr2_max_S              =   2.8437018116624E+01
(PID.TID 0000.0001) %MON land_Tgr2_max_T              =   3.0666690293581E+01
(PID.TID 0000.0001) %MON land_Tgr2_max_N              =   3.1148268271876E+01
(PID.TID 0000.0001) %MON land_TotEnerg_G              =   1.0746948486490E+21
(PID.TID 0000.0001) %MON land_TotEnerg_S              =   1.3508857137979E+20
(PID.TID 0000.0001) %MON land_TotEnerg_T              =   9.7287845116298E+20
(PID.TID 0000.0001) %MON land_TotEnerg_N              =  -3.3272173893744E+19
(PID.TID 0000.0001) %MON land_grdW_ave_G              =   7.0710862509195E-01
(PID.TID 0000.0001) %MON land_grdW_ave_S              =   1.2702183910860E-01
(PID.TID 0000.0001) %MON land_grdW_ave_T              =   7.6766489871018E-01
(PID.TID 0000.0001) %MON land_grdW_ave_N              =   7.5980043866621E-01
(PID.TID 0000.0001) %MON land_grdW_min_S              =   1.4140719207015E-02
(PID.TID 0000.0001) %MON land_grdW_min_T              =   1.4254080649738E-01
(PID.TID 0000.0001) %MON land_grdW_min_N              =   4.3846914674858E-02
(PID.TID 0000.0001) // =======================================================
(PID.TID 0000.0001) // End MONITOR Land statistics
(PID.TID 0000.0001) // =======================================================
(PID.TID 0000.0001) // =======================================================
(PID.TID 0000.0001) // Begin MONITOR Therm.SeaIce statistics
(PID.TID 0000.0001) // =======================================================
(PID.TID 0000.0001) %MON thSI_time_sec                =   6.6749187360000E+11
(PID.TID 0000.0001) %MON thSI_Ice_Area_G              =   4.9740437490015E+13
(PID.TID 0000.0001) %MON thSI_Ice_Area_S              =   4.9740437490015E+13
(PID.TID 0000.0001) %MON thSI_Ice_Area_N              =   0.0000000000000E+00
(PID.TID 0000.0001) %MON thSI_IceH_ave_G              =   9.9231578741569E+00
(PID.TID 0000.0001) %MON thSI_IceH_ave_S              =   9.9231578741569E+00
(PID.TID 0000.0001) %MON thSI_IceH_ave_N              =   0.0000000000000E+00
(PID.TID 0000.0001) %MON thSI_IceH_max_S              =   2.2476410178684E+01
(PID.TID 0000.0001) %MON thSI_IceH_max_N              =   0.0000000000000E+00
(PID.TID 0000.0001) %MON thSI_SnwH_ave_G              =   4.7237166099576E-02
(PID.TID 0000.0001) %MON thSI_SnwH_ave_S              =   4.7237166099576E-02
(PID.TID 0000.0001) %MON thSI_SnwH_ave_N              =   0.0000000000000E+00
(PID.TID 0000.0001) %MON thSI_SnwH_max_S              =   3.1740204519408E-01
(PID.TID 0000.0001) %MON thSI_SnwH_max_N              =   0.0000000000000E+00
(PID.TID 0000.0001) %MON thSI_Tsrf_ave_G              =  -8.8527811104338E-01
(PID.TID 0000.0001) %MON thSI_Tsrf_ave_S              =  -8.8527811104338E-01
(PID.TID 0000.0001) %MON thSI_Tsrf_ave_N              =   0.0000000000000E+00
(PID.TID 0000.0001) %MON thSI_Tsrf_min_S              =  -8.7742982671815E+00
(PID.TID 0000.0001) %MON thSI_Tsrf_min_N              =   0.0000000000000E+00
(PID.TID 0000.0001) %MON thSI_Tsrf_max_S              =   0.0000000000000E+00
(PID.TID 0000.0001) %MON thSI_Tsrf_max_N              =   0.0000000000000E+00
(PID.TID 0000.0001) %MON thSI_Tic1_ave_G              =  -1.4086630144607E+01
(PID.TID 0000.0001) %MON thSI_Tic1_ave_S              =  -1.4086630144607E+01
(PID.TID 0000.0001) %MON thSI_Tic1_ave_N              =   0.0000000000000E+00
(PID.TID 0000.0001) %MON thSI_Tic1_min_S              =  -1.9915799677819E+01
(PID.TID 0000.0001) %MON thSI_Tic1_min_N              =   0.0000000000000E+00
(PID.TID 0000.0001) %MON thSI_Tic1_max_S              =  -1.5388930220041E-01
(PID.TID 0000.0001) %MON thSI_Tic1_max_N              =   0.0000000000000E+00
(PID.TID 0000.0001) %MON thSI_Tic2_ave_G              =  -6.1599352750021E+00
(PID.TID 0000.0001) %MON thSI_Tic2_ave_S              =  -6.1599352750021E+00
(PID.TID 0000.0001) %MON thSI_Tic2_ave_N              =   0.0000000000000E+00
(PID.TID 0000.0001) %MON thSI_Tic2_min_S              =  -7.6251851114960E+00
(PID.TID 0000.0001) %MON thSI_Tic2_min_N              =   0.0000000000000E+00
(PID.TID 0000.0001) %MON thSI_Tic2_max_S              =  -1.4192389260378E-02
(PID.TID 0000.0001) %MON thSI_Tic2_max_N              =   0.0000000000000E+00
(PID.TID 0000.0001) %MON thSI_TotEnerg_G              =  -1.5749496314482E+23
(PID.TID 0000.0001) // =======================================================
(PID.TID 0000.0001) // End MONITOR Therm.SeaIce statistics
(PID.TID 0000.0001) // =======================================================
 Compute Stats, Diag. #    187  SI_Fract  vol(   0 ): 5.100E+14  Parms: SM P    M1      
 Compute Stats, Diag. #    188  SI_Thick  vol(   0 ): 4.974E+13  Parms: SM PC   M1      
    use Counter Mate  #    187  SI_Fract  vol(   0 ): 5.100E+14 integral 4.974E+13
 Compute Stats, Diag. #    273  aim_pCO2  vol(   0 ): 5.100E+14  Parms: SM P    L1      
 Compute Stats, Diag. #    279  CPL_fCO2  vol(   0 ): 5.100E+14  Parms: SM      M1      
 Compute Stats, Diag. #    275  CPL_MxlD  vol(   0 ): 5.100E+14  Parms: SM      M1      
 Compute Stats, Diag. #    276  CPL_SST   vol(   0 ): 5.100E+14  Parms: SM      M1      
 Compute Stats, Diag. #    277  CPL_SSS   vol(   0 ): 5.100E+14  Parms: SM      M1      
 Compute Stats, Diag. #    278  CPL_Vel2  vol(   0 ): 5.100E+14  Parms: SM      M1      
 cg2d: Sum(rhs),rhsMax =  -2.18657078221440E-05  5.96763984124093E+03
(PID.TID 0000.0001)      cg2d_init_res =   1.05173696872505E+03
(PID.TID 0000.0001)      cg2d_iters(min,last) =      -1      23
(PID.TID 0000.0001)      cg2d_last_res =   3.86097650577115E-11
 cg3d: Sum(rhs),rhsMax =  -3.71391285780565E-14  5.42908689775865E+00
(PID.TID 0000.0001)      cg3d_init_res =   9.61647484380865E-01
(PID.TID 0000.0001)      cg3d_iters (last) =                 12
(PID.TID 0000.0001)      cg3d_last_res =   6.22902524059301E-05
(PID.TID 0000.0001) // =======================================================
(PID.TID 0000.0001) // Begin MONITOR dynamic field statistics
(PID.TID 0000.0001) // =======================================================
(PID.TID 0000.0001) %MON time_tsnumber                =             556243229
(PID.TID 0000.0001) %MON time_secondsf                =   6.6749187480000E+11
(PID.TID 0000.0001) %MON dynstat_eta_max              =   2.2241697623095E+03
(PID.TID 0000.0001) %MON dynstat_eta_min              =  -4.5205536381267E+03
(PID.TID 0000.0001) %MON dynstat_eta_mean             =   6.2209102698743E-09
(PID.TID 0000.0001) %MON dynstat_eta_sd               =   9.7891717608456E+02
(PID.TID 0000.0001) %MON dynstat_eta_del2             =   4.4133716548889E+00
(PID.TID 0000.0001) %MON dynstat_uvel_max             =   8.2712706322615E+01
(PID.TID 0000.0001) %MON dynstat_uvel_min             =  -5.9019151220047E+01
(PID.TID 0000.0001) %MON dynstat_uvel_mean            =   1.8443386561474E+00
(PID.TID 0000.0001) %MON dynstat_uvel_sd              =   1.2390987296138E+01
(PID.TID 0000.0001) %MON dynstat_uvel_del2            =   4.8695459114199E-02
(PID.TID 0000.0001) %MON dynstat_vvel_max             =   1.0500376060970E+02
(PID.TID 0000.0001) %MON dynstat_vvel_min             =  -5.1036681614769E+01
(PID.TID 0000.0001) %MON dynstat_vvel_mean            =   1.7876819955992E+00
(PID.TID 0000.0001) %MON dynstat_vvel_sd              =   1.2519918449266E+01
(PID.TID 0000.0001) %MON dynstat_vvel_del2            =   4.8930963790146E-02
(PID.TID 0000.0001) %MON dynstat_wvel_max             =   1.5106548826976E+00
(PID.TID 0000.0001) %MON dynstat_wvel_min             =  -2.0128761077368E+00
(PID.TID 0000.0001) %MON dynstat_wvel_mean            =   3.0527362874447E-18
(PID.TID 0000.0001) %MON dynstat_wvel_sd              =   9.4570987989891E-02
(PID.TID 0000.0001) %MON dynstat_wvel_del2            =   1.5844465238325E-03
(PID.TID 0000.0001) %MON dynstat_theta_max            =   5.0224655942697E+02
(PID.TID 0000.0001) %MON dynstat_theta_min            =   2.6584760180927E+02
(PID.TID 0000.0001) %MON dynstat_theta_mean           =   3.3728548880868E+02
(PID.TID 0000.0001) %MON dynstat_theta_sd             =   4.8958933393528E+01
(PID.TID 0000.0001) %MON dynstat_theta_del2           =   2.7115708138382E-02
(PID.TID 0000.0001) %MON dynstat_salt_max             =   1.7814661432809E+01
(PID.TID 0000.0001) %MON dynstat_salt_min             =  -2.3843575825776E+00
(PID.TID 0000.0001) %MON dynstat_salt_mean            =   3.2317549478171E+00
(PID.TID 0000.0001) %MON dynstat_salt_sd              =   3.9626747349957E+00
(PID.TID 0000.0001) %MON dynstat_salt_del2            =   1.1964803597139E-02
(PID.TID 0000.0001) %MON trAdv_CFL_u_max              =   5.1640355204721E-01
(PID.TID 0000.0001) %MON trAdv_CFL_v_max              =   4.6314524157258E-01
(PID.TID 0000.0001) %MON trAdv_CFL_w_max              =   1.2142800617722E-01
(PID.TID 0000.0001) %MON advcfl_uvel_max              =   6.3854115138012E-01
(PID.TID 0000.0001) %MON advcfl_vvel_max              =   4.7500697430988E-01
(PID.TID 0000.0001) %MON advcfl_wvel_max              =   9.6618053171368E-02
(PID.TID 0000.0001) %MON advcfl_W_hf_max              =   1.4040665217490E-01
(PID.TID 0000.0001) %MON am_eta_mean                  =   2.4572962035242E+10
(PID.TID 0000.0001) %MON am_uZo_mean                  =   3.1473199626041E+11
(PID.TID 0000.0001) %MON am_tot_mean                  =   3.3930495829565E+11
(PID.TID 0000.0001) %MON pe_b_mean                    =   3.9803945940591E+00
(PID.TID 0000.0001) %MON ke_max                       =   5.4379758103064E+03
(PID.TID 0000.0001) %MON ke_mean                      =   1.5836617749900E+02
(PID.TID 0000.0001) %MON ke_vol                       =   5.0995454902520E+19
(PID.TID 0000.0001) %MON vort_r_min                   =  -2.3494962903378E-04
(PID.TID 0000.0001) %MON vort_r_max                   =   3.3257592226848E-04
(PID.TID 0000.0001) %MON vort_a_mean                  =  -4.4121579154475E-20
(PID.TID 0000.0001) %MON vort_a_sd                    =   8.8900809868014E-05
(PID.TID 0000.0001) %MON vort_p_mean                  =  -4.4121579154475E-20
(PID.TID 0000.0001) %MON vort_p_sd                    =   8.8900809868014E-05
(PID.TID 0000.0001) %MON surfExpan_theta_mean         =  -4.0971583717585E-03
(PID.TID 0000.0001) %MON surfExpan_salt_mean          =  -2.0353012261332E-03
(PID.TID 0000.0001) %MON surfExpan_Heat_mean          =  -4.1322136952997E-01
(PID.TID 0000.0001) %MON En_Budget_T2PE_mean          =   1.9000378143199E+00
(PID.TID 0000.0001) // =======================================================
(PID.TID 0000.0001) // End MONITOR dynamic field statistics
(PID.TID 0000.0001) // =======================================================
(PID.TID 0000.0001) // =======================================================
(PID.TID 0000.0001) // Begin MONITOR Land statistics
(PID.TID 0000.0001) // =======================================================
(PID.TID 0000.0001) %MON land_time_sec                =   6.6749187480000E+11
(PID.TID 0000.0001) %MON land_SnwH_ave_G              =   3.8706651512438E-03
(PID.TID 0000.0001) %MON land_SnwH_ave_S              =   0.0000000000000E+00
(PID.TID 0000.0001) %MON land_SnwH_ave_T              =   0.0000000000000E+00
(PID.TID 0000.0001) %MON land_SnwH_ave_N              =   7.2491127716201E-03
(PID.TID 0000.0001) %MON land_SnwH_max_S              =   0.0000000000000E+00
(PID.TID 0000.0001) %MON land_SnwH_max_T              =   0.0000000000000E+00
(PID.TID 0000.0001) %MON land_SnwH_max_N              =   7.3266802596407E-02
(PID.TID 0000.0001) %MON land_Tsrf_ave_G              =   1.4938396442338E+01
(PID.TID 0000.0001) %MON land_Tsrf_ave_S              =   3.6777284940584E+01
(PID.TID 0000.0001) %MON land_Tsrf_ave_T              =   2.8350756235226E+01
(PID.TID 0000.0001) %MON land_Tsrf_ave_N              =   1.8433451287672E+00
(PID.TID 0000.0001) %MON land_Tsrf_min_S              =   3.1355155218632E+01
(PID.TID 0000.0001) %MON land_Tsrf_min_T              =   2.6317495469274E+01
(PID.TID 0000.0001) %MON land_Tsrf_min_N              =  -1.9903802221874E+01
(PID.TID 0000.0001) %MON land_Tsrf_max_S              =   4.1909027737643E+01
(PID.TID 0000.0001) %MON land_Tsrf_max_T              =   3.2638302130295E+01
(PID.TID 0000.0001) %MON land_Tsrf_max_N              =   2.7582800994911E+01
(PID.TID 0000.0001) %MON land_Tgr1_ave_G              =   1.4948962656019E+01
(PID.TID 0000.0001) %MON land_Tgr1_ave_S              =   3.6777284940584E+01
(PID.TID 0000.0001) %MON land_Tgr1_ave_T              =   2.8350756235226E+01
(PID.TID 0000.0001) %MON land_Tgr1_ave_N              =   1.8631338915646E+00
(PID.TID 0000.0001) %MON land_Tgr1_min_S              =   3.1355155218632E+01
(PID.TID 0000.0001) %MON land_Tgr1_min_T              =   2.6317495469274E+01
(PID.TID 0000.0001) %MON land_Tgr1_min_N              =  -1.9876125779589E+01
(PID.TID 0000.0001) %MON land_Tgr1_max_S              =   4.1909027737643E+01
(PID.TID 0000.0001) %MON land_Tgr1_max_T              =   3.2638302130295E+01
(PID.TID 0000.0001) %MON land_Tgr1_max_N              =   2.7582800994911E+01
(PID.TID 0000.0001) %MON land_Tgr2_ave_G              =   1.8543498737620E+01
(PID.TID 0000.0001) %MON land_Tgr2_ave_S              =   2.5519858822267E+01
(PID.TID 0000.0001) %MON land_Tgr2_ave_T              =   2.8639950333211E+01
(PID.TID 0000.0001) %MON land_Tgr2_ave_N              =   1.0245015947448E+01
(PID.TID 0000.0001) %MON land_Tgr2_min_S              =   2.1489817734011E+01
(PID.TID 0000.0001) %MON land_Tgr2_min_T              =   2.7870019346409E+01
(PID.TID 0000.0001) %MON land_Tgr2_min_N              =  -3.5073973431677E+00
(PID.TID 0000.0001) %MON land_Tgr2_max_S              =   2.8437480394023E+01
(PID.TID 0000.0001) %MON land_Tgr2_max_T              =   3.0666595854859E+01
(PID.TID 0000.0001) %MON land_Tgr2_max_N              =   3.1148099878321E+01
(PID.TID 0000.0001) %MON land_TotEnerg_G              =   1.0746859225040E+21
(PID.TID 0000.0001) %MON land_TotEnerg_S              =   1.3509441935250E+20
(PID.TID 0000.0001) %MON land_TotEnerg_T              =   9.7287584834601E+20
(PID.TID 0000.0001) %MON land_TotEnerg_N              =  -3.3284345194551E+19
(PID.TID 0000.0001) %MON land_grdW_ave_G              =   7.0710385247467E-01
(PID.TID 0000.0001) %MON land_grdW_ave_S              =   1.2702908313710E-01
(PID.TID 0000.0001) %MON land_grdW_ave_T              =   7.6765088840625E-01
(PID.TID 0000.0001) %MON land_grdW_ave_N              =   7.5980022731575E-01
(PID.TID 0000.0001) %MON land_grdW_min_S              =   1.4086947125441E-02
(PID.TID 0000.0001) %MON land_grdW_min_T              =   1.4351292635211E-01
(PID.TID 0000.0001) %MON land_grdW_min_N              =   4.3807756721105E-02
(PID.TID 0000.0001) // =======================================================
(PID.TID 0000.0001) // End MONITOR Land statistics
(PID.TID 0000.0001) // =======================================================
(PID.TID 0000.0001) // =======================================================
(PID.TID 0000.0001) // Begin MONITOR Therm.SeaIce statistics
(PID.TID 0000.0001) // =======================================================
(PID.TID 0000.0001) %MON thSI_time_sec                =   6.6749187480000E+11
(PID.TID 0000.0001) %MON thSI_Ice_Area_G              =   4.9739013373037E+13
(PID.TID 0000.0001) %MON thSI_Ice_Area_S              =   4.9739013373037E+13
(PID.TID 0000.0001) %MON thSI_Ice_Area_N              =   0.0000000000000E+00
(PID.TID 0000.0001) %MON thSI_IceH_ave_G              =   9.9233612642007E+00
(PID.TID 0000.0001) %MON thSI_IceH_ave_S              =   9.9233612642007E+00
(PID.TID 0000.0001) %MON thSI_IceH_ave_N              =   0.0000000000000E+00
(PID.TID 0000.0001) %MON thSI_IceH_max_S              =   2.2476415631325E+01
(PID.TID 0000.0001) %MON thSI_IceH_max_N              =   0.0000000000000E+00
(PID.TID 0000.0001) %MON thSI_SnwH_ave_G              =   4.7160350482944E-02
(PID.TID 0000.0001) %MON thSI_SnwH_ave_S              =   4.7160350482944E-02
(PID.TID 0000.0001) %MON thSI_SnwH_ave_N              =   0.0000000000000E+00
(PID.TID 0000.0001) %MON thSI_SnwH_max_S              =   3.1718769960540E-01
(PID.TID 0000.0001) %MON thSI_SnwH_max_N              =   0.0000000000000E+00
(PID.TID 0000.0001) %MON thSI_Tsrf_ave_G              =  -8.8617187982291E-01
(PID.TID 0000.0001) %MON thSI_Tsrf_ave_S              =  -8.8617187982291E-01
(PID.TID 0000.0001) %MON thSI_Tsrf_ave_N              =   0.0000000000000E+00
(PID.TID 0000.0001) %MON thSI_Tsrf_min_S              =  -8.7664359377315E+00
(PID.TID 0000.0001) %MON thSI_Tsrf_min_N              =   0.0000000000000E+00
(PID.TID 0000.0001) %MON thSI_Tsrf_max_S              =   0.0000000000000E+00
(PID.TID 0000.0001) %MON thSI_Tsrf_max_N              =   0.0000000000000E+00
(PID.TID 0000.0001) %MON thSI_Tic1_ave_G              =  -1.4085918374891E+01
(PID.TID 0000.0001) %MON thSI_Tic1_ave_S              =  -1.4085918374891E+01
(PID.TID 0000.0001) %MON thSI_Tic1_ave_N              =   0.0000000000000E+00
(PID.TID 0000.0001) %MON thSI_Tic1_min_S              =  -1.9915351329229E+01
(PID.TID 0000.0001) %MON thSI_Tic1_min_N              =   0.0000000000000E+00
(PID.TID 0000.0001) %MON thSI_Tic1_max_S              =  -1.5388291345184E-01
(PID.TID 0000.0001) %MON thSI_Tic1_max_N              =   0.0000000000000E+00
(PID.TID 0000.0001) %MON thSI_Tic2_ave_G              =  -6.1598763156970E+00
(PID.TID 0000.0001) %MON thSI_Tic2_ave_S              =  -6.1598763156970E+00
(PID.TID 0000.0001) %MON thSI_Tic2_ave_N              =   0.0000000000000E+00
(PID.TID 0000.0001) %MON thSI_Tic2_min_S              =  -7.6251871225313E+00
(PID.TID 0000.0001) %MON thSI_Tic2_min_N              =   0.0000000000000E+00
(PID.TID 0000.0001) %MON thSI_Tic2_max_S              =  -9.3486260489799E-03
(PID.TID 0000.0001) %MON thSI_Tic2_max_N              =   0.0000000000000E+00
(PID.TID 0000.0001) %MON thSI_TotEnerg_G              =  -1.5749275853704E+23
(PID.TID 0000.0001) // =======================================================
(PID.TID 0000.0001) // End MONITOR Therm.SeaIce statistics
(PID.TID 0000.0001) // =======================================================
 cg2d: Sum(rhs),rhsMax =  -2.18648929148912E-05  5.93728293127457E+03
(PID.TID 0000.0001)      cg2d_init_res =   1.03255660806739E+03
(PID.TID 0000.0001)      cg2d_iters(min,last) =      -1      23
(PID.TID 0000.0001)      cg2d_last_res =   3.92996356475697E-11
 cg3d: Sum(rhs),rhsMax =  -2.00160593937133E-14  5.70518422071982E+00
(PID.TID 0000.0001)      cg3d_init_res =   9.47832799643906E-01
(PID.TID 0000.0001)      cg3d_iters (last) =                 12
(PID.TID 0000.0001)      cg3d_last_res =   6.42547682400122E-05
(PID.TID 0000.0001) // =======================================================
(PID.TID 0000.0001) // Begin MONITOR dynamic field statistics
(PID.TID 0000.0001) // =======================================================
(PID.TID 0000.0001) %MON time_tsnumber                =             556243230
(PID.TID 0000.0001) %MON time_secondsf                =   6.6749187600000E+11
(PID.TID 0000.0001) %MON dynstat_eta_max              =   2.2231452396734E+03
(PID.TID 0000.0001) %MON dynstat_eta_min              =  -4.5283177925476E+03
(PID.TID 0000.0001) %MON dynstat_eta_mean             =   6.2209488238984E-09
(PID.TID 0000.0001) %MON dynstat_eta_sd               =   9.7881678043968E+02
(PID.TID 0000.0001) %MON dynstat_eta_del2             =   4.4168199315760E+00
(PID.TID 0000.0001) %MON dynstat_uvel_max             =   8.4194847078612E+01
(PID.TID 0000.0001) %MON dynstat_uvel_min             =  -5.8868443085729E+01
(PID.TID 0000.0001) %MON dynstat_uvel_mean            =   1.8447690821639E+00
(PID.TID 0000.0001) %MON dynstat_uvel_sd              =   1.2390634567021E+01
(PID.TID 0000.0001) %MON dynstat_uvel_del2            =   4.8724299120979E-02
(PID.TID 0000.0001) %MON dynstat_vvel_max             =   1.0490972739879E+02
(PID.TID 0000.0001) %MON dynstat_vvel_min             =  -5.0881436091891E+01
(PID.TID 0000.0001) %MON dynstat_vvel_mean            =   1.7872649566698E+00
(PID.TID 0000.0001) %MON dynstat_vvel_sd              =   1.2521638415593E+01
(PID.TID 0000.0001) %MON dynstat_vvel_del2            =   4.8917685616607E-02
(PID.TID 0000.0001) %MON dynstat_wvel_max             =   1.5962992317569E+00
(PID.TID 0000.0001) %MON dynstat_wvel_min             =  -1.8924374138448E+00
(PID.TID 0000.0001) %MON dynstat_wvel_mean            =   2.2047539853768E-18
(PID.TID 0000.0001) %MON dynstat_wvel_sd              =   9.4615540938449E-02
(PID.TID 0000.0001) %MON dynstat_wvel_del2            =   1.5740430177660E-03
(PID.TID 0000.0001) %MON dynstat_theta_max            =   5.0224607218359E+02
(PID.TID 0000.0001) %MON dynstat_theta_min            =   2.6583272999654E+02
(PID.TID 0000.0001) %MON dynstat_theta_mean           =   3.3728468416476E+02
(PID.TID 0000.0001) %MON dynstat_theta_sd             =   4.8959247316323E+01
(PID.TID 0000.0001) %MON dynstat_theta_del2           =   2.7129103438942E-02
(PID.TID 0000.0001) %MON dynstat_salt_max             =   1.7839018581144E+01
(PID.TID 0000.0001) %MON dynstat_salt_min             =  -2.4171994769614E+00
(PID.TID 0000.0001) %MON dynstat_salt_mean            =   3.2317989158036E+00
(PID.TID 0000.0001) %MON dynstat_salt_sd              =   3.9627173530514E+00
(PID.TID 0000.0001) %MON dynstat_salt_del2            =   1.1966240846354E-02
(PID.TID 0000.0001) %MON trAdv_CFL_u_max              =   5.2585015762634E-01
(PID.TID 0000.0001) %MON trAdv_CFL_v_max              =   4.7209426491827E-01
(PID.TID 0000.0001) %MON trAdv_CFL_w_max              =   1.2592377321902E-01
(PID.TID 0000.0001) %MON advcfl_uvel_max              =   6.4998326114679E-01
(PID.TID 0000.0001) %MON advcfl_vvel_max              =   4.7709009261251E-01
(PID.TID 0000.0001) %MON advcfl_wvel_max              =   9.0836995864550E-02
(PID.TID 0000.0001) %MON advcfl_W_hf_max              =   1.3258846210428E-01
(PID.TID 0000.0001) %MON am_eta_mean                  =   2.4571899083012E+10
(PID.TID 0000.0001) %MON am_uZo_mean                  =   3.1473905947817E+11
(PID.TID 0000.0001) %MON am_tot_mean                  =   3.3931095856118E+11
(PID.TID 0000.0001) %MON pe_b_mean                    =   3.9795781944696E+00
(PID.TID 0000.0001) %MON ke_max                       =   5.4198251120251E+03
(PID.TID 0000.0001) %MON ke_mean                      =   1.5838291275179E+02
(PID.TID 0000.0001) %MON ke_vol                       =   5.0995454902520E+19
(PID.TID 0000.0001) %MON vort_r_min                   =  -2.2724263151840E-04
(PID.TID 0000.0001) %MON vort_r_max                   =   3.5237550307398E-04
(PID.TID 0000.0001) %MON vort_a_mean                  =   1.4707193051492E-20
(PID.TID 0000.0001) %MON vort_a_sd                    =   8.8904036671674E-05
(PID.TID 0000.0001) %MON vort_p_mean                  =   1.4707193051492E-20
(PID.TID 0000.0001) %MON vort_p_sd                    =   8.8904036671674E-05
(PID.TID 0000.0001) %MON surfExpan_theta_mean         =  -4.1650478705484E-03
(PID.TID 0000.0001) %MON surfExpan_salt_mean          =  -2.0474963170416E-03
(PID.TID 0000.0001) %MON surfExpan_Heat_mean          =  -4.2006840572462E-01
(PID.TID 0000.0001) %MON En_Budget_T2PE_mean          =   1.8999834122053E+00
(PID.TID 0000.0001) // =======================================================
(PID.TID 0000.0001) // End MONITOR dynamic field statistics
(PID.TID 0000.0001) // =======================================================
(PID.TID 0000.0001) // =======================================================
(PID.TID 0000.0001) // Begin MONITOR Land statistics
(PID.TID 0000.0001) // =======================================================
(PID.TID 0000.0001) %MON land_time_sec                =   6.6749187600000E+11
(PID.TID 0000.0001) %MON land_SnwH_ave_G              =   3.8732954022706E-03
(PID.TID 0000.0001) %MON land_SnwH_ave_S              =   0.0000000000000E+00
(PID.TID 0000.0001) %MON land_SnwH_ave_T              =   0.0000000000000E+00
(PID.TID 0000.0001) %MON land_SnwH_ave_N              =   7.2540387948139E-03
(PID.TID 0000.0001) %MON land_SnwH_max_S              =   0.0000000000000E+00
(PID.TID 0000.0001) %MON land_SnwH_max_T              =   0.0000000000000E+00
(PID.TID 0000.0001) %MON land_SnwH_max_N              =   7.3266506045380E-02
(PID.TID 0000.0001) %MON land_Tsrf_ave_G              =   1.4945717305673E+01
(PID.TID 0000.0001) %MON land_Tsrf_ave_S              =   3.6795447138311E+01
(PID.TID 0000.0001) %MON land_Tsrf_ave_T              =   2.8357320543196E+01
(PID.TID 0000.0001) %MON land_Tsrf_ave_N              =   1.8494155609144E+00
(PID.TID 0000.0001) %MON land_Tsrf_min_S              =   3.1344138411650E+01
(PID.TID 0000.0001) %MON land_Tsrf_min_T              =   2.6342090546930E+01
(PID.TID 0000.0001) %MON land_Tsrf_min_N              =  -1.9902529592325E+01
(PID.TID 0000.0001) %MON land_Tsrf_max_S              =   4.1939754269151E+01
(PID.TID 0000.0001) %MON land_Tsrf_max_T              =   3.2696598343406E+01
(PID.TID 0000.0001) %MON land_Tsrf_max_N              =   2.7526052173182E+01
(PID.TID 0000.0001) %MON land_Tgr1_ave_G              =   1.4954745594435E+01
(PID.TID 0000.0001) %MON land_Tgr1_ave_S              =   3.6795447138311E+01
(PID.TID 0000.0001) %MON land_Tgr1_ave_T              =   2.8357320543196E+01
(PID.TID 0000.0001) %MON land_Tgr1_ave_N              =   1.8663240458432E+00
(PID.TID 0000.0001) %MON land_Tgr1_min_S              =   3.1344138411650E+01
(PID.TID 0000.0001) %MON land_Tgr1_min_T              =   2.6342090546930E+01
(PID.TID 0000.0001) %MON land_Tgr1_min_N              =  -1.9874607171372E+01
(PID.TID 0000.0001) %MON land_Tgr1_max_S              =   4.1939754269151E+01
(PID.TID 0000.0001) %MON land_Tgr1_max_T              =   3.2696598343406E+01
(PID.TID 0000.0001) %MON land_Tgr1_max_N              =   2.7526052173182E+01
(PID.TID 0000.0001) %MON land_Tgr2_ave_G              =   1.8543421995892E+01
(PID.TID 0000.0001) %MON land_Tgr2_ave_S              =   2.5520446037704E+01
(PID.TID 0000.0001) %MON land_Tgr2_ave_T              =   2.8639939137036E+01
(PID.TID 0000.0001) %MON land_Tgr2_ave_N              =   1.0244783405686E+01
(PID.TID 0000.0001) %MON land_Tgr2_min_S              =   2.1490482982421E+01
(PID.TID 0000.0001) %MON land_Tgr2_min_T              =   2.7870030861702E+01
(PID.TID 0000.0001) %MON land_Tgr2_min_N              =  -3.5078091960369E+00
(PID.TID 0000.0001) %MON land_Tgr2_max_S              =   2.8437943415654E+01
(PID.TID 0000.0001) %MON land_Tgr2_max_T              =   3.0666500988883E+01
(PID.TID 0000.0001) %MON land_Tgr2_max_N              =   3.1147928827451E+01
(PID.TID 0000.0001) %MON land_TotEnerg_G              =   1.0746769310967E+21
(PID.TID 0000.0001) %MON land_TotEnerg_S              =   1.3510061741747E+20
(PID.TID 0000.0001) %MON land_TotEnerg_T              =   9.7287318327998E+20
(PID.TID 0000.0001) %MON land_TotEnerg_N              =  -3.3296869600731E+19
(PID.TID 0000.0001) %MON land_grdW_ave_G              =   7.0709902994665E-01
(PID.TID 0000.0001) %MON land_grdW_ave_S              =   1.2703731426084E-01
(PID.TID 0000.0001) %MON land_grdW_ave_T              =   7.6763687057230E-01
(PID.TID 0000.0001) %MON land_grdW_ave_N              =   7.5979976519651E-01
(PID.TID 0000.0001) %MON land_grdW_min_S              =   1.4033637161661E-02
(PID.TID 0000.0001) %MON land_grdW_min_T              =   1.4449389727820E-01
(PID.TID 0000.0001) %MON land_grdW_min_N              =   4.3722385818426E-02
(PID.TID 0000.0001) // =======================================================
(PID.TID 0000.0001) // End MONITOR Land statistics
(PID.TID 0000.0001) // =======================================================
(PID.TID 0000.0001) // =======================================================
(PID.TID 0000.0001) // Begin MONITOR Therm.SeaIce statistics
(PID.TID 0000.0001) // =======================================================
(PID.TID 0000.0001) %MON thSI_time_sec                =   6.6749187600000E+11
(PID.TID 0000.0001) %MON thSI_Ice_Area_G              =   4.9737590581539E+13
(PID.TID 0000.0001) %MON thSI_Ice_Area_S              =   4.9737590581539E+13
(PID.TID 0000.0001) %MON thSI_Ice_Area_N              =   0.0000000000000E+00
(PID.TID 0000.0001) %MON thSI_IceH_ave_G              =   9.9235643855147E+00
(PID.TID 0000.0001) %MON thSI_IceH_ave_S              =   9.9235643855147E+00
(PID.TID 0000.0001) %MON thSI_IceH_ave_N              =   0.0000000000000E+00
(PID.TID 0000.0001) %MON thSI_IceH_max_S              =   2.2476421083965E+01
(PID.TID 0000.0001) %MON thSI_IceH_max_N              =   0.0000000000000E+00
(PID.TID 0000.0001) %MON thSI_SnwH_ave_G              =   4.7083629643228E-02
(PID.TID 0000.0001) %MON thSI_SnwH_ave_S              =   4.7083629643228E-02
(PID.TID 0000.0001) %MON thSI_SnwH_ave_N              =   0.0000000000000E+00
(PID.TID 0000.0001) %MON thSI_SnwH_max_S              =   3.1697193219948E-01
(PID.TID 0000.0001) %MON thSI_SnwH_max_N              =   0.0000000000000E+00
(PID.TID 0000.0001) %MON thSI_Tsrf_ave_G              =  -8.8701220614985E-01
(PID.TID 0000.0001) %MON thSI_Tsrf_ave_S              =  -8.8701220614985E-01
(PID.TID 0000.0001) %MON thSI_Tsrf_ave_N              =   0.0000000000000E+00
(PID.TID 0000.0001) %MON thSI_Tsrf_min_S              =  -8.7563451117189E+00
(PID.TID 0000.0001) %MON thSI_Tsrf_min_N              =   0.0000000000000E+00
(PID.TID 0000.0001) %MON thSI_Tsrf_max_S              =   0.0000000000000E+00
(PID.TID 0000.0001) %MON thSI_Tsrf_max_N              =   0.0000000000000E+00
(PID.TID 0000.0001) %MON thSI_Tic1_ave_G              =  -1.4085206765192E+01
(PID.TID 0000.0001) %MON thSI_Tic1_ave_S              =  -1.4085206765192E+01
(PID.TID 0000.0001) %MON thSI_Tic1_ave_N              =   0.0000000000000E+00
(PID.TID 0000.0001) %MON thSI_Tic1_min_S              =  -1.9914902914149E+01
(PID.TID 0000.0001) %MON thSI_Tic1_min_N              =   0.0000000000000E+00
(PID.TID 0000.0001) %MON thSI_Tic1_max_S              =  -1.5378106328491E-01
(PID.TID 0000.0001) %MON thSI_Tic1_max_N              =   0.0000000000000E+00
(PID.TID 0000.0001) %MON thSI_Tic2_ave_G              =  -6.1598243500954E+00
(PID.TID 0000.0001) %MON thSI_Tic2_ave_S              =  -6.1598243500954E+00
(PID.TID 0000.0001) %MON thSI_Tic2_ave_N              =   0.0000000000000E+00
(PID.TID 0000.0001) %MON thSI_Tic2_min_S              =  -7.6251891287078E+00
(PID.TID 0000.0001) %MON thSI_Tic2_min_N              =   0.0000000000000E+00
(PID.TID 0000.0001) %MON thSI_Tic2_max_S              =  -1.6859018820677E-02
(PID.TID 0000.0001) %MON thSI_Tic2_max_N              =   0.0000000000000E+00
(PID.TID 0000.0001) %MON thSI_TotEnerg_G              =  -1.5749055433049E+23
(PID.TID 0000.0001) // =======================================================
(PID.TID 0000.0001) // End MONITOR Therm.SeaIce statistics
(PID.TID 0000.0001) // =======================================================
(PID.TID 0000.0001) DIAGSTATS_CLOSE_IO: close file: cplStDiag.0556243200.txt , unit=     9
(PID.TID 0000.0001) %CHECKPOINT 556243230 ckptA
(PID.TID 0000.0001)   Seconds in section "ALL                    [THE_MODEL_MAIN]":
(PID.TID 0000.0001)           User time:   14.804949093610048
(PID.TID 0000.0001)         System time:  0.17492900043725967
(PID.TID 0000.0001)     Wall clock time:   15.004384040832520
(PID.TID 0000.0001)          No. starts:           1
(PID.TID 0000.0001)           No. stops:           1
(PID.TID 0000.0001)   Seconds in section "INITIALISE_FIXED       [THE_MODEL_MAIN]":
(PID.TID 0000.0001)           User time:  0.14898099936544895
(PID.TID 0000.0001)         System time:   1.1766999959945679E-002
(PID.TID 0000.0001)     Wall clock time:  0.16076087951660156
(PID.TID 0000.0001)          No. starts:           1
(PID.TID 0000.0001)           No. stops:           1
(PID.TID 0000.0001)   Seconds in section "THE_MAIN_LOOP          [THE_MODEL_MAIN]":
(PID.TID 0000.0001)           User time:   14.655949369072914
(PID.TID 0000.0001)         System time:  0.16312399506568909
(PID.TID 0000.0001)     Wall clock time:   14.843571186065674
(PID.TID 0000.0001)          No. starts:           1
(PID.TID 0000.0001)           No. stops:           1
(PID.TID 0000.0001)   Seconds in section "INITIALISE_VARIA    [THE_MAIN_LOOP]":
(PID.TID 0000.0001)           User time:  0.18208299577236176
(PID.TID 0000.0001)         System time:  0.14270301163196564
(PID.TID 0000.0001)     Wall clock time:  0.32479310035705566
(PID.TID 0000.0001)          No. starts:           1
(PID.TID 0000.0001)           No. stops:           1
(PID.TID 0000.0001)   Seconds in section "MAIN LOOP           [THE_MAIN_LOOP]":
(PID.TID 0000.0001)           User time:   14.473841756582260
(PID.TID 0000.0001)         System time:   2.0408004522323608E-002
(PID.TID 0000.0001)     Wall clock time:   14.518746852874756
(PID.TID 0000.0001)          No. starts:           1
(PID.TID 0000.0001)           No. stops:           1
(PID.TID 0000.0001)   Seconds in section "MAIN_DO_LOOP        [THE_MAIN_LOOP]":
(PID.TID 0000.0001)           User time:   14.473612993955612
(PID.TID 0000.0001)         System time:   2.0402997732162476E-002
(PID.TID 0000.0001)     Wall clock time:   14.518504142761230
(PID.TID 0000.0001)          No. starts:          30
(PID.TID 0000.0001)           No. stops:          30
(PID.TID 0000.0001)   Seconds in section "FORWARD_STEP        [MAIN_DO_LOOP]":
(PID.TID 0000.0001)           User time:   14.473144203424454
(PID.TID 0000.0001)         System time:   2.0397007465362549E-002
(PID.TID 0000.0001)     Wall clock time:   14.518034219741821
(PID.TID 0000.0001)          No. starts:          30
(PID.TID 0000.0001)           No. stops:          30
(PID.TID 0000.0001)   Seconds in section "DO_STATEVARS_DIAGS  [FORWARD_STEP]":
(PID.TID 0000.0001)           User time:   4.9822032451629639E-003
(PID.TID 0000.0001)         System time:   2.2798776626586914E-004
(PID.TID 0000.0001)     Wall clock time:   5.2316188812255859E-003
(PID.TID 0000.0001)          No. starts:          60
(PID.TID 0000.0001)           No. stops:          60
(PID.TID 0000.0001)   Seconds in section "LOAD_FIELDS_DRIVER  [FORWARD_STEP]":
(PID.TID 0000.0001)           User time:   3.7693977355957031E-004
(PID.TID 0000.0001)         System time:   4.2500197887420654E-003
(PID.TID 0000.0001)     Wall clock time:   4.6372413635253906E-003
(PID.TID 0000.0001)          No. starts:          30
(PID.TID 0000.0001)           No. stops:          30
(PID.TID 0000.0001)   Seconds in section "CPL_EXPORT-IMPORT  [FORWARD_STEP]":
(PID.TID 0000.0001)           User time:   5.8462881445884705
(PID.TID 0000.0001)         System time:   0.0000000000000000
(PID.TID 0000.0001)     Wall clock time:   5.8543386459350586
(PID.TID 0000.0001)          No. starts:          30
(PID.TID 0000.0001)           No. stops:          30
(PID.TID 0000.0001)   Seconds in section "DO_ATMOSPHERIC_PHYS [FORWARD_STEP]":
(PID.TID 0000.0001)           User time:   1.1185418367385864
(PID.TID 0000.0001)         System time:   0.0000000000000000
(PID.TID 0000.0001)     Wall clock time:   1.1238634586334229
(PID.TID 0000.0001)          No. starts:          30
(PID.TID 0000.0001)           No. stops:          30
(PID.TID 0000.0001)   Seconds in section "AIM_DO_PHYSICS [DO_ATMOSPHERIC_PHYS]":
(PID.TID 0000.0001)           User time:   1.0993169546127319
(PID.TID 0000.0001)         System time:   0.0000000000000000
(PID.TID 0000.0001)     Wall clock time:   1.1047260761260986
(PID.TID 0000.0001)          No. starts:          30
(PID.TID 0000.0001)           No. stops:          30
(PID.TID 0000.0001)   Seconds in section "DO_OCEANIC_PHYS     [FORWARD_STEP]":
(PID.TID 0000.0001)           User time:   7.5149536132812500E-004
(PID.TID 0000.0001)         System time:   0.0000000000000000
(PID.TID 0000.0001)     Wall clock time:   7.5674057006835938E-004
(PID.TID 0000.0001)          No. starts:          30
(PID.TID 0000.0001)           No. stops:          30
(PID.TID 0000.0001)   Seconds in section "THERMODYNAMICS      [FORWARD_STEP]":
(PID.TID 0000.0001)           User time:  0.83638286590576172
(PID.TID 0000.0001)         System time:   0.0000000000000000
(PID.TID 0000.0001)     Wall clock time:  0.83673954010009766
(PID.TID 0000.0001)          No. starts:          30
(PID.TID 0000.0001)           No. stops:          30
(PID.TID 0000.0001)   Seconds in section "BLOCKING_EXCHANGES  [FORWARD_STEP]":
(PID.TID 0000.0001)           User time:   4.1716337203979492E-002
(PID.TID 0000.0001)         System time:   0.0000000000000000
(PID.TID 0000.0001)     Wall clock time:   4.1767358779907227E-002
(PID.TID 0000.0001)          No. starts:          60
(PID.TID 0000.0001)           No. stops:          60
(PID.TID 0000.0001)   Seconds in section "DYNAMICS            [FORWARD_STEP]":
(PID.TID 0000.0001)           User time:  0.99587702751159668
(PID.TID 0000.0001)         System time:   0.0000000000000000
(PID.TID 0000.0001)     Wall clock time:   1.0011503696441650
(PID.TID 0000.0001)          No. starts:          30
(PID.TID 0000.0001)           No. stops:          30
(PID.TID 0000.0001)   Seconds in section "UPDATE_SURF_DR      [FORWARD_STEP]":
(PID.TID 0000.0001)           User time:   2.2982597351074219E-002
(PID.TID 0000.0001)         System time:   0.0000000000000000
(PID.TID 0000.0001)     Wall clock time:   2.2999525070190430E-002
(PID.TID 0000.0001)          No. starts:          30
(PID.TID 0000.0001)           No. stops:          30
(PID.TID 0000.0001)   Seconds in section "SOLVE_FOR_PRESSURE  [FORWARD_STEP]":
(PID.TID 0000.0001)           User time:   2.9258526563644409
(PID.TID 0000.0001)         System time:   0.0000000000000000
(PID.TID 0000.0001)     Wall clock time:   2.9309425354003906
(PID.TID 0000.0001)          No. starts:          30
(PID.TID 0000.0001)           No. stops:          30
(PID.TID 0000.0001)   Seconds in section "CG3D   [SOLVE_FOR_PRESSURE]":
(PID.TID 0000.0001)           User time:   2.1342455148696899
(PID.TID 0000.0001)         System time:   0.0000000000000000
(PID.TID 0000.0001)     Wall clock time:   2.1392965316772461
(PID.TID 0000.0001)          No. starts:          30
(PID.TID 0000.0001)           No. stops:          30
(PID.TID 0000.0001)   Seconds in section "MOM_CORRECTION_STEP [FORWARD_STEP]":
(PID.TID 0000.0001)           User time:   1.0528609752655029
(PID.TID 0000.0001)         System time:   0.0000000000000000
(PID.TID 0000.0001)     Wall clock time:   1.0528888702392578
(PID.TID 0000.0001)          No. starts:          30
(PID.TID 0000.0001)           No. stops:          30
(PID.TID 0000.0001)   Seconds in section "SHAP_FILT_UV       [MOM_CORR_STEP]":
(PID.TID 0000.0001)           User time:  0.97216367721557617
(PID.TID 0000.0001)         System time:   0.0000000000000000
(PID.TID 0000.0001)     Wall clock time:  0.97221875190734863
(PID.TID 0000.0001)          No. starts:          30
(PID.TID 0000.0001)           No. stops:          30
(PID.TID 0000.0001)   Seconds in section "INTEGR_CONTINUITY   [FORWARD_STEP]":
(PID.TID 0000.0001)           User time:  0.12211394309997559
(PID.TID 0000.0001)         System time:   0.0000000000000000
(PID.TID 0000.0001)     Wall clock time:  0.12256073951721191
(PID.TID 0000.0001)          No. starts:          30
(PID.TID 0000.0001)           No. stops:          30
(PID.TID 0000.0001)   Seconds in section "TRC_CORRECTION_STEP [FORWARD_STEP]":
(PID.TID 0000.0001)           User time:  0.58081984519958496
(PID.TID 0000.0001)         System time:   0.0000000000000000
(PID.TID 0000.0001)     Wall clock time:  0.58082461357116699
(PID.TID 0000.0001)          No. starts:          30
(PID.TID 0000.0001)           No. stops:          30
(PID.TID 0000.0001)   Seconds in section "SHAP_FILT_TS       [TRC_CORR_STEP]":
(PID.TID 0000.0001)           User time:  0.54147624969482422
(PID.TID 0000.0001)         System time:   0.0000000000000000
(PID.TID 0000.0001)     Wall clock time:  0.54150104522705078
(PID.TID 0000.0001)          No. starts:          30
(PID.TID 0000.0001)           No. stops:          30
(PID.TID 0000.0001)   Seconds in section "DO_STATEVARS_TAVE   [FORWARD_STEP]":
(PID.TID 0000.0001)           User time:   2.5379657745361328E-004
(PID.TID 0000.0001)         System time:   0.0000000000000000
(PID.TID 0000.0001)     Wall clock time:   2.5391578674316406E-004
(PID.TID 0000.0001)          No. starts:          30
(PID.TID 0000.0001)           No. stops:          30
(PID.TID 0000.0001)   Seconds in section "MONITOR             [FORWARD_STEP]":
(PID.TID 0000.0001)           User time:  0.78785216808319092
(PID.TID 0000.0001)         System time:   0.0000000000000000
(PID.TID 0000.0001)     Wall clock time:  0.78809261322021484
(PID.TID 0000.0001)          No. starts:          30
(PID.TID 0000.0001)           No. stops:          30
(PID.TID 0000.0001)   Seconds in section "DO_THE_MODEL_IO     [FORWARD_STEP]":
(PID.TID 0000.0001)           User time:  0.11371552944183350
(PID.TID 0000.0001)         System time:   0.0000000000000000
(PID.TID 0000.0001)     Wall clock time:  0.11375832557678223
(PID.TID 0000.0001)          No. starts:          30
(PID.TID 0000.0001)           No. stops:          30
(PID.TID 0000.0001)   Seconds in section "DO_WRITE_PICKUP     [FORWARD_STEP]":
(PID.TID 0000.0001)           User time:   1.6229271888732910E-002
(PID.TID 0000.0001)         System time:   1.5883982181549072E-002
(PID.TID 0000.0001)     Wall clock time:   3.2116651535034180E-002
(PID.TID 0000.0001)          No. starts:          30
(PID.TID 0000.0001)           No. stops:          30
(PID.TID 0000.0001) // ======================================================
(PID.TID 0000.0001) // Tile <-> Tile communication statistics
(PID.TID 0000.0001) // ======================================================
(PID.TID 0000.0001) // o Tile number: 000001
(PID.TID 0000.0001) //         No. X exchanges =              0
(PID.TID 0000.0001) //            Max. X spins =              0
(PID.TID 0000.0001) //            Min. X spins =     1000000000
(PID.TID 0000.0001) //          Total. X spins =              0
(PID.TID 0000.0001) //            Avg. X spins =       0.00E+00
(PID.TID 0000.0001) //         No. Y exchanges =              0
(PID.TID 0000.0001) //            Max. Y spins =              0
(PID.TID 0000.0001) //            Min. Y spins =     1000000000
(PID.TID 0000.0001) //          Total. Y spins =              0
(PID.TID 0000.0001) //            Avg. Y spins =       0.00E+00
(PID.TID 0000.0001) // o Tile number: 000002
(PID.TID 0000.0001) //         No. X exchanges =              0
(PID.TID 0000.0001) //            Max. X spins =              0
(PID.TID 0000.0001) //            Min. X spins =     1000000000
(PID.TID 0000.0001) //          Total. X spins =              0
(PID.TID 0000.0001) //            Avg. X spins =       0.00E+00
(PID.TID 0000.0001) //         No. Y exchanges =              0
(PID.TID 0000.0001) //            Max. Y spins =              0
(PID.TID 0000.0001) //            Min. Y spins =     1000000000
(PID.TID 0000.0001) //          Total. Y spins =              0
(PID.TID 0000.0001) //            Avg. Y spins =       0.00E+00
(PID.TID 0000.0001) // o Tile number: 000003
(PID.TID 0000.0001) //         No. X exchanges =              0
(PID.TID 0000.0001) //            Max. X spins =              0
(PID.TID 0000.0001) //            Min. X spins =     1000000000
(PID.TID 0000.0001) //          Total. X spins =              0
(PID.TID 0000.0001) //            Avg. X spins =       0.00E+00
(PID.TID 0000.0001) //         No. Y exchanges =              0
(PID.TID 0000.0001) //            Max. Y spins =              0
(PID.TID 0000.0001) //            Min. Y spins =     1000000000
(PID.TID 0000.0001) //          Total. Y spins =              0
(PID.TID 0000.0001) //            Avg. Y spins =       0.00E+00
(PID.TID 0000.0001) // o Tile number: 000004
(PID.TID 0000.0001) //         No. X exchanges =              0
(PID.TID 0000.0001) //            Max. X spins =              0
(PID.TID 0000.0001) //            Min. X spins =     1000000000
(PID.TID 0000.0001) //          Total. X spins =              0
(PID.TID 0000.0001) //            Avg. X spins =       0.00E+00
(PID.TID 0000.0001) //         No. Y exchanges =              0
(PID.TID 0000.0001) //            Max. Y spins =              0
(PID.TID 0000.0001) //            Min. Y spins =     1000000000
(PID.TID 0000.0001) //          Total. Y spins =              0
(PID.TID 0000.0001) //            Avg. Y spins =       0.00E+00
(PID.TID 0000.0001) // o Tile number: 000005
(PID.TID 0000.0001) //         No. X exchanges =              0
(PID.TID 0000.0001) //            Max. X spins =              0
(PID.TID 0000.0001) //            Min. X spins =     1000000000
(PID.TID 0000.0001) //          Total. X spins =              0
(PID.TID 0000.0001) //            Avg. X spins =       0.00E+00
(PID.TID 0000.0001) //         No. Y exchanges =              0
(PID.TID 0000.0001) //            Max. Y spins =              0
(PID.TID 0000.0001) //            Min. Y spins =     1000000000
(PID.TID 0000.0001) //          Total. Y spins =              0
(PID.TID 0000.0001) //            Avg. Y spins =       0.00E+00
(PID.TID 0000.0001) // o Tile number: 000006
(PID.TID 0000.0001) //         No. X exchanges =              0
(PID.TID 0000.0001) //            Max. X spins =              0
(PID.TID 0000.0001) //            Min. X spins =     1000000000
(PID.TID 0000.0001) //          Total. X spins =              0
(PID.TID 0000.0001) //            Avg. X spins =       0.00E+00
(PID.TID 0000.0001) //         No. Y exchanges =              0
(PID.TID 0000.0001) //            Max. Y spins =              0
(PID.TID 0000.0001) //            Min. Y spins =     1000000000
(PID.TID 0000.0001) //          Total. Y spins =              0
(PID.TID 0000.0001) //            Avg. Y spins =       0.00E+00
(PID.TID 0000.0001) // o Thread number: 000001
(PID.TID 0000.0001) //            No. barriers =          31914
(PID.TID 0000.0001) //      Max. barrier spins =              1
(PID.TID 0000.0001) //      Min. barrier spins =              1
(PID.TID 0000.0001) //     Total barrier spins =          31914
(PID.TID 0000.0001) //      Avg. barrier spins =       1.00E+00
PROGRAM MAIN: Execution ended Normally
