(PID.TID 0000.0001) 
(PID.TID 0000.0001) // ======================================================
(PID.TID 0000.0001) //                      MITgcm UV
(PID.TID 0000.0001) //                      =========
(PID.TID 0000.0001) // ======================================================
(PID.TID 0000.0001) // execution environment starting up...
(PID.TID 0000.0001) 
(PID.TID 0000.0001) // MITgcmUV version:  checkpoint68c
(PID.TID 0000.0001) // Build user:        jm_c
(PID.TID 0000.0001) // Build host:        villon
(PID.TID 0000.0001) // Build date:        Sat Oct 16 15:18:03 EDT 2021
(PID.TID 0000.0001) 
(PID.TID 0000.0001) // =======================================================
(PID.TID 0000.0001) // Execution Environment parameter file "eedata"
(PID.TID 0000.0001) // =======================================================
(PID.TID 0000.0001) ># Example "eedata" file
(PID.TID 0000.0001) ># Lines beginning "#" are comments
(PID.TID 0000.0001) >#  nTx      :: No. threads per process in X
(PID.TID 0000.0001) >#  nTy      :: No. threads per process in Y
(PID.TID 0000.0001) ># debugMode :: print debug msg (sequence of S/R calls)
(PID.TID 0000.0001) ># useCubedSphereExchange :: use Cubed-Sphere type topology for EXCH
(PID.TID 0000.0001) > &EEPARMS
(PID.TID 0000.0001) > useCoupler=.TRUE.,
(PID.TID 0000.0001) > useCubedSphereExchange=.TRUE.,
(PID.TID 0000.0001) >#debugMode=.TRUE.,
(PID.TID 0000.0001) ># Activate one line below to support 2, 3 or 6 way multi-threading
(PID.TID 0000.0001) > nTx=1,
(PID.TID 0000.0001) >#nTx=2,
(PID.TID 0000.0001) >#nTx=3,
(PID.TID 0000.0001) >#nTx=6,
(PID.TID 0000.0001) > /
(PID.TID 0000.0001) ># Note: Some systems use & as the namelist terminator (as shown here).
(PID.TID 0000.0001) >#       Other systems use a / character.
(PID.TID 0000.0001) 
(PID.TID 0000.0001) // =======================================================
(PID.TID 0000.0001) // Computational Grid Specification ( see files "SIZE.h" )
(PID.TID 0000.0001) //                                  ( and "eedata"       )
(PID.TID 0000.0001) // =======================================================
(PID.TID 0000.0001)      nPx =    1 ; /* No. processes in X */
(PID.TID 0000.0001)      nPy =    1 ; /* No. processes in Y */
(PID.TID 0000.0001)      nSx =    6 ; /* No. tiles in X per process */
(PID.TID 0000.0001)      nSy =    1 ; /* No. tiles in Y per process */
(PID.TID 0000.0001)      sNx =   24 ; /* Tile size in X */
(PID.TID 0000.0001)      sNy =   24 ; /* Tile size in Y */
(PID.TID 0000.0001)      OLx =    4 ; /* Tile overlap distance in X */
(PID.TID 0000.0001)      OLy =    4 ; /* Tile overlap distance in Y */
(PID.TID 0000.0001)      nTx =    1 ; /* No. threads in X per process */
(PID.TID 0000.0001)      nTy =    1 ; /* No. threads in Y per process */
(PID.TID 0000.0001)       Nr =   15 ; /* No. levels in the vertical   */
(PID.TID 0000.0001)       Nx =  144 ; /* Total domain size in X ( = nPx*nSx*sNx ) */
(PID.TID 0000.0001)       Ny =   24 ; /* Total domain size in Y ( = nPy*nSy*sNy ) */
(PID.TID 0000.0001)   nTiles =    6 ; /* Total no. tiles per process ( = nSx*nSy ) */
(PID.TID 0000.0001)   nProcs =    1 ; /* Total no. processes ( = nPx*nPy ) */
(PID.TID 0000.0001) nThreads =    1 ; /* Total no. threads per process ( = nTx*nTy ) */
(PID.TID 0000.0001) usingMPI =    T ; /* Flag used to control whether MPI is in use */
(PID.TID 0000.0001)                   /*  note: To execute a program with MPI calls */
(PID.TID 0000.0001)                   /*  it must be launched appropriately e.g     */
(PID.TID 0000.0001)                   /*  "mpirun -np 64 ......"                    */
(PID.TID 0000.0001) useCoupler=   T ; /* Flag used to control communications with   */
(PID.TID 0000.0001)                   /*  other model components, through a coupler */
(PID.TID 0000.0001) useNest2W_parent =    F ;/* Control 2-W Nesting comm */
(PID.TID 0000.0001) useNest2W_child  =    F ;/* Control 2-W Nesting comm */
(PID.TID 0000.0001) debugMode =    F ; /* print debug msg. (sequence of S/R calls)  */
(PID.TID 0000.0001) printMapIncludesZeros=    F ; /* print zeros in Std.Output maps */
(PID.TID 0000.0001) maxLengthPrt1D=   65 /* maxLength of 1D array printed to StdOut */
(PID.TID 0000.0001) 
(PID.TID 0000.0001) ======= Starting MPI parallel Run =========
(PID.TID 0000.0001)  My Processor Name (len:  6 ) = villon
(PID.TID 0000.0001)  Located at (  0,  0) on processor grid (0:  0,0:  0)
(PID.TID 0000.0001)  Origin at  (     1,     1) on global grid (1:   144,1:    24)
(PID.TID 0000.0001)  North neighbor = processor 0000
(PID.TID 0000.0001)  South neighbor = processor 0000
(PID.TID 0000.0001)   East neighbor = processor 0000
(PID.TID 0000.0001)   West neighbor = processor 0000
(PID.TID 0000.0001) // ======================================================
(PID.TID 0000.0001) // Mapping of tiles to threads
(PID.TID 0000.0001) // ======================================================
(PID.TID 0000.0001) // -o- Thread   1, tiles (   1:   6,   1:   1)
(PID.TID 0000.0001) 
(PID.TID 0000.0001) W2_READPARMS: file data.exch2 not found
(PID.TID 0000.0001) => use W2_EXCH2 default: regular 6-facets Cube
(PID.TID 0000.0001) W2_useE2ioLayOut=    T ;/* T: use Exch2 glob IO map; F: use model default */
(PID.TID 0000.0001) W2_mapIO        =  -1 ; /* select option for Exch2 global-IO map */
(PID.TID 0000.0001) W2_printMsg     =  -1 ; /* select option for printing information */
(PID.TID 0000.0001) ===== Start setting W2 TOPOLOGY:
(PID.TID 0000.0001)  write to log-file: w2_tile_topology.0000.log
(PID.TID 0000.0001) =====       setting W2 TOPOLOGY: Done
(PID.TID 0000.0001) 
(PID.TID 0000.0001)  INI_PARMS: opening model parameter file "data"
(PID.TID 0000.0001)  OPEN_COPY_DATA_FILE: opening file data
(PID.TID 0000.0001) // =======================================================
(PID.TID 0000.0001) // Parameter file "data"
(PID.TID 0000.0001) // =======================================================
(PID.TID 0000.0001) ># ====================
(PID.TID 0000.0001) ># | Model parameters |
(PID.TID 0000.0001) ># ====================
(PID.TID 0000.0001) >#
(PID.TID 0000.0001) ># Continuous equation parameters
(PID.TID 0000.0001) > &PARM01
(PID.TID 0000.0001) > tRef=16.5, 14.0, 13.5, 13.0, 12.0,
(PID.TID 0000.0001) >      10.0,  6.7,  4.0,  2.2,  1.0,
(PID.TID 0000.0001) >       0.2, -0.3, -0.7, -1.1, -1.4,
(PID.TID 0000.0001) > sRef=15*35.,
(PID.TID 0000.0001) > viscAh =3.E5,
(PID.TID 0000.0001) > viscAr =1.E-3,
(PID.TID 0000.0001) > bottomDragLinear=1.E-3,
(PID.TID 0000.0001) > diffKhT=0.,
(PID.TID 0000.0001) > diffK4T=0.,
(PID.TID 0000.0001) > diffKrT=3.E-5,
(PID.TID 0000.0001) > diffKhS=0.,
(PID.TID 0000.0001) > diffK4S=0.,
(PID.TID 0000.0001) > diffKrS=3.E-5,
(PID.TID 0000.0001) > gravity=9.81,
(PID.TID 0000.0001) > rhonil=1030.,
(PID.TID 0000.0001) > rhoConstFresh=1000.,
(PID.TID 0000.0001) > eosType='JMD95Z',
(PID.TID 0000.0001) >#allowFreezing=.TRUE.,
(PID.TID 0000.0001) > ivdc_kappa=10.,
(PID.TID 0000.0001) > implicitDiffusion=.TRUE.,
(PID.TID 0000.0001) > implicitFreeSurface=.TRUE.,
(PID.TID 0000.0001) > exactConserv=.TRUE.,
(PID.TID 0000.0001) > select_rStar=2,
(PID.TID 0000.0001) > nonlinFreeSurf=4,
(PID.TID 0000.0001) > hFacInf=0.2,
(PID.TID 0000.0001) > hFacSup=2.0,
(PID.TID 0000.0001) > useRealFreshWaterFlux=.TRUE.,
(PID.TID 0000.0001) > convertFW2Salt=34.,
(PID.TID 0000.0001) > temp_EvPrRn=0.,
(PID.TID 0000.0001) > hFacMin=.1,
(PID.TID 0000.0001) > hFacMinDr=20.,
(PID.TID 0000.0001) > vectorInvariantMomentum=.TRUE.,
(PID.TID 0000.0001) > staggerTimeStep=.TRUE.,
(PID.TID 0000.0001) > readBinaryPrec=64,
(PID.TID 0000.0001) > writeBinaryPrec=64,
(PID.TID 0000.0001) > useSingleCpuIO=.TRUE.,
(PID.TID 0000.0001) > debugLevel=2,
(PID.TID 0000.0001) > /
(PID.TID 0000.0001) >
(PID.TID 0000.0001) ># Elliptic solver parameters
(PID.TID 0000.0001) > &PARM02
(PID.TID 0000.0001) > cg2dMaxIters=200,
(PID.TID 0000.0001) > cg2dTargetResidual=1.E-9,
(PID.TID 0000.0001) >#cg2dTargetResWunit=1.E-14,
(PID.TID 0000.0001) > /
(PID.TID 0000.0001) >
(PID.TID 0000.0001) ># Time stepping parameters
(PID.TID 0000.0001) > &PARM03
(PID.TID 0000.0001) > nIter0=185414400,
(PID.TID 0000.0001) >#nTimeSteps=720,
(PID.TID 0000.0001) > pChkptFreq=2592000.,
(PID.TID 0000.0001) > taveFreq=0,
(PID.TID 0000.0001) > dumpFreq=0,
(PID.TID 0000.0001) > monitorFreq=259200.,
(PID.TID 0000.0001) > deltaTmom=3600.,
(PID.TID 0000.0001) > deltaTtracer=3600.,
(PID.TID 0000.0001) > deltaTClock =3600.,
(PID.TID 0000.0001) >#abEps=0.12,
(PID.TID 0000.0001) >#alph_AB=0.62,
(PID.TID 0000.0001) >#beta_AB=0.,
(PID.TID 0000.0001) > alph_AB=0.5,
(PID.TID 0000.0001) > beta_AB=0.281105,
(PID.TID 0000.0001) > doAB_onGtGs=.FALSE.,
(PID.TID 0000.0001) > forcing_In_AB=.FALSE.,
(PID.TID 0000.0001) > momDissip_In_AB=.FALSE.,
(PID.TID 0000.0001) > periodicExternalForcing=.TRUE.,
(PID.TID 0000.0001) > externForcingPeriod=2592000.,
(PID.TID 0000.0001) > externForcingCycle=31104000.,
(PID.TID 0000.0001) > pickupStrictlyMatch=.TRUE.,
(PID.TID 0000.0001) > nTimeSteps=10,
(PID.TID 0000.0001) > monitorFreq=3600.,
(PID.TID 0000.0001) > /
(PID.TID 0000.0001) >
(PID.TID 0000.0001) ># Gridding parameters
(PID.TID 0000.0001) > &PARM04
(PID.TID 0000.0001) > usingCurvilinearGrid=.TRUE.,
(PID.TID 0000.0001) > horizGridFile='grid_cs24',
(PID.TID 0000.0001) > radius_fromHorizGrid=6370.E3,
(PID.TID 0000.0001) > rSphere=6370.E3,
(PID.TID 0000.0001) >#delR= 50., 70., 100., 140., 190.,
(PID.TID 0000.0001) >#      240., 290., 340., 390., 440.,
(PID.TID 0000.0001) >#      490., 540., 590., 640., 690.,
(PID.TID 0000.0001) > delR= 30.,  40.,  60.,  80., 110.,
(PID.TID 0000.0001) >      140., 160., 200., 220., 260.,
(PID.TID 0000.0001) >      280., 310., 340., 370., 400.,
(PID.TID 0000.0001) > /
(PID.TID 0000.0001) >
(PID.TID 0000.0001) ># Input datasets
(PID.TID 0000.0001) > &PARM05
(PID.TID 0000.0001) > bathyFile      ='DDrake.c24.Bathy.3p0km.bin',
(PID.TID 0000.0001) > hydrogThetaFile='DDr3p0_Cpl277T_C24_z15.bin',
(PID.TID 0000.0001) > hydrogSaltFile ='DDr3p0_Cpl277S_C24_z15.bin',
(PID.TID 0000.0001) > /
(PID.TID 0000.0001) 
(PID.TID 0000.0001)  INI_PARMS ; starts to read PARM01
(PID.TID 0000.0001)  INI_PARMS ; read PARM01 : OK
(PID.TID 0000.0001)  INI_PARMS ; starts to read PARM02
(PID.TID 0000.0001)  INI_PARMS ; read PARM02 : OK
(PID.TID 0000.0001)  INI_PARMS ; starts to read PARM03
(PID.TID 0000.0001)  INI_PARMS ; read PARM03 : OK
(PID.TID 0000.0001)  INI_PARMS ; starts to read PARM04
(PID.TID 0000.0001)  INI_PARMS ; read PARM04 : OK
(PID.TID 0000.0001)  INI_PARMS ; starts to read PARM05
(PID.TID 0000.0001)  INI_PARMS ; read PARM05 : OK
(PID.TID 0000.0001)  INI_PARMS: finished reading file "data"
(PID.TID 0000.0001)  PACKAGES_BOOT: opening data.pkg
(PID.TID 0000.0001)  OPEN_COPY_DATA_FILE: opening file data.pkg
(PID.TID 0000.0001) // =======================================================
(PID.TID 0000.0001) // Parameter file "data.pkg"
(PID.TID 0000.0001) // =======================================================
(PID.TID 0000.0001) ># Packages
(PID.TID 0000.0001) > &PACKAGES
(PID.TID 0000.0001) > useGMRedi=.TRUE.,
(PID.TID 0000.0001) > usediagnostics=.TRUE.,
(PID.TID 0000.0001) > usePTRACERS=.TRUE.,
(PID.TID 0000.0001) > useGCHEM=.TRUE.,
(PID.TID 0000.0001) > /
(PID.TID 0000.0001) 
(PID.TID 0000.0001)  PACKAGES_BOOT: finished reading data.pkg
(PID.TID 0000.0001)  PACKAGES_BOOT: On/Off package Summary
 --------  pkgs with a standard "usePKG" On/Off switch in "data.pkg":  --------
 pkg/gmredi               compiled   and   used ( useGMRedi                = T )
 pkg/ptracers             compiled   and   used ( usePTRACERS              = T )
 pkg/gchem                compiled   and   used ( useGCHEM                 = T )
 pkg/diagnostics          compiled   and   used ( useDiagnostics           = T )
 -------- pkgs without standard "usePKG" On/Off switch in "data.pkg":  --------
 pkg/generic_advdiff      compiled   and   used ( useGAD                   = T )
 pkg/mom_common           compiled   and   used ( momStepping              = T )
 pkg/mom_vecinv           compiled   and   used ( +vectorInvariantMomentum = T )
 pkg/mom_fluxform         compiled but not used ( & not vectorInvariantMom = F )
 pkg/monitor              compiled   and   used ( monitorFreq > 0.         = T )
 pkg/timeave              compiled but not used ( taveFreq > 0.            = F )
 pkg/debug                compiled but not used ( debugMode                = F )
 pkg/compon_communic      compiled   and   used ( useCoupler               = T )
 pkg/ocn_compon_interf    compiled   and   used ( useCoupler               = T )
 pkg/exch2                compiled   and   used
 pkg/rw                   compiled   and   used
 pkg/mdsio                compiled   and   used
(PID.TID 0000.0001)  PACKAGES_BOOT: End of package Summary
(PID.TID 0000.0001) 
 CPL_IMPORT_CPLPARMS: Recv parBuf=     0     2     3     0     0     3
(PID.TID 0000.0001)  GM_READPARMS: opening data.gmredi
(PID.TID 0000.0001)  OPEN_COPY_DATA_FILE: opening file data.gmredi
(PID.TID 0000.0001) // =======================================================
(PID.TID 0000.0001) // Parameter file "data.gmredi"
(PID.TID 0000.0001) // =======================================================
(PID.TID 0000.0001) ># GM+Redi package parameters:
(PID.TID 0000.0001) >
(PID.TID 0000.0001) >#-from MOM :
(PID.TID 0000.0001) ># GM_background_K: 	G & Mc.W  diffusion coefficient
(PID.TID 0000.0001) ># GM_maxSlope    :	max slope of isopycnals
(PID.TID 0000.0001) ># GM_Scrit       :	transition for scaling diffusion coefficient
(PID.TID 0000.0001) ># GM_Sd          :	half width scaling for diffusion coefficient
(PID.TID 0000.0001) ># GM_taper_scheme:	slope clipping or one of the tapering schemes
(PID.TID 0000.0001) ># GM_Kmin_horiz  :	horizontal diffusion minimum value
(PID.TID 0000.0001) >
(PID.TID 0000.0001) >#-Option parameters (needs to "define" options in GMREDI_OPTIONS.h")
(PID.TID 0000.0001) ># GM_isopycK     :	isopycnal diffusion coefficient (default=GM_background_K)
(PID.TID 0000.0001) ># GM_AdvForm     :	turn on GM Advective form       (default=Skew flux form)
(PID.TID 0000.0001) >
(PID.TID 0000.0001) > &GM_PARM01
(PID.TID 0000.0001) >  GM_AdvForm         =.TRUE.,
(PID.TID 0000.0001) >  GM_background_K    = 1200.,
(PID.TID 0000.0001) >  GM_taper_scheme    = 'gkw91',
(PID.TID 0000.0001) >  GM_maxSlope        = 1.e-2,
(PID.TID 0000.0001) >  GM_Kmin_horiz      = 50.,
(PID.TID 0000.0001) >  GM_Scrit           = 4.e-3,
(PID.TID 0000.0001) >  GM_Sd              = 1.e-3,
(PID.TID 0000.0001) ># GM_Visbeck_alpha   = 0.,
(PID.TID 0000.0001) ># GM_Visbeck_length  = 2.e+5,
(PID.TID 0000.0001) ># GM_Visbeck_depth   = 1.e+3,
(PID.TID 0000.0001) ># GM_Visbeck_maxval_K= 2.5e+3,
(PID.TID 0000.0001) > &end
(PID.TID 0000.0001) >
(PID.TID 0000.0001) >
(PID.TID 0000.0001) 
(PID.TID 0000.0001)  GM_READPARMS: finished reading data.gmredi
(PID.TID 0000.0001)  PTRACERS_READPARMS: opening data.ptracers
(PID.TID 0000.0001)  OPEN_COPY_DATA_FILE: opening file data.ptracers
(PID.TID 0000.0001) // =======================================================
(PID.TID 0000.0001) // Parameter file "data.ptracers"
(PID.TID 0000.0001) // =======================================================
(PID.TID 0000.0001) > &PTRACERS_PARM01
(PID.TID 0000.0001) > PTRACERS_numInUse=5,
(PID.TID 0000.0001) > PTRACERS_Iter0= 112406400,
(PID.TID 0000.0001) >#
(PID.TID 0000.0001) ># tracer 1 - dic
(PID.TID 0000.0001) > PTRACERS_names(1)='dic',
(PID.TID 0000.0001) > PTRACERS_long_names(1)='Dissolved Inorganic Carbon',
(PID.TID 0000.0001) > PTRACERS_units(1)='mol C/m^3',
(PID.TID 0000.0001) > PTRACERS_advScheme(1)=77,
(PID.TID 0000.0001) > PTRACERS_stayPositive(1)=.FALSE.,
(PID.TID 0000.0001) > PTRACERS_diffKh(1)=0.E3,
(PID.TID 0000.0001) > PTRACERS_diffKr(1)=3.E-5,
(PID.TID 0000.0001) > PTRACERS_useGMRedi(1)=.TRUE. ,
(PID.TID 0000.0001) > PTRACERS_useKPP(1)=.FALSE. ,
(PID.TID 0000.0001) > PTRACERS_initialFile(1)=' ',
(PID.TID 0000.0001) > PTRACERS_ref(1,1) = 15*2.1,
(PID.TID 0000.0001) > PTRACERS_EvPrRn(1)= 0.,
(PID.TID 0000.0001) ># tracer 2 - alk
(PID.TID 0000.0001) > PTRACERS_names(2)='alk',
(PID.TID 0000.0001) > PTRACERS_long_names(2)='Alkalinity',
(PID.TID 0000.0001) > PTRACERS_units(2)='mol eq/m^3',
(PID.TID 0000.0001) > PTRACERS_advScheme(2)=77,
(PID.TID 0000.0001) > PTRACERS_stayPositive(2)=.FALSE.,
(PID.TID 0000.0001) > PTRACERS_diffKh(2)=0.E3,
(PID.TID 0000.0001) > PTRACERS_diffKr(2)=3.E-5,
(PID.TID 0000.0001) > PTRACERS_useGMRedi(2)=.TRUE. ,
(PID.TID 0000.0001) > PTRACERS_useKPP(2)=.FALSE. ,
(PID.TID 0000.0001) > PTRACERS_initialFile(2)=' ',
(PID.TID 0000.0001) > PTRACERS_ref(1,2) = 15*2.36,
(PID.TID 0000.0001) > PTRACERS_EvPrRn(2)= 0.,
(PID.TID 0000.0001) ># tracer 3 - po4
(PID.TID 0000.0001) > PTRACERS_names(3)='po4',
(PID.TID 0000.0001) > PTRACERS_long_names(3)='Phosphate',
(PID.TID 0000.0001) > PTRACERS_units(3)='mol P/m^3',
(PID.TID 0000.0001) > PTRACERS_advScheme(3)=77,
(PID.TID 0000.0001) > PTRACERS_diffKh(3)=0.E3,
(PID.TID 0000.0001) > PTRACERS_diffKr(3)=3.E-5,
(PID.TID 0000.0001) > PTRACERS_useGMRedi(3)=.TRUE. ,
(PID.TID 0000.0001) > PTRACERS_useKPP(3)=.FALSE. ,
(PID.TID 0000.0001) > PTRACERS_initialFile(3)=' ',
(PID.TID 0000.0001) > PTRACERS_ref(1,3) = 15*2.2E-3,
(PID.TID 0000.0001) > PTRACERS_EvPrRn(3)= 0.,
(PID.TID 0000.0001) ># tracer 4 - dop
(PID.TID 0000.0001) > PTRACERS_names(4)='dop',
(PID.TID 0000.0001) > PTRACERS_long_names(4)='Dissolved Organic Phosphorus',
(PID.TID 0000.0001) > PTRACERS_units(4)='mol P/m^3',
(PID.TID 0000.0001) > PTRACERS_advScheme(4)=77,
(PID.TID 0000.0001) > PTRACERS_diffKh(4)=0.E3,
(PID.TID 0000.0001) > PTRACERS_diffKr(4)=3.E-5,
(PID.TID 0000.0001) > PTRACERS_useGMRedi(4)=.TRUE.
(PID.TID 0000.0001) > PTRACERS_useKPP(4)=.FALSE. ,
(PID.TID 0000.0001) > PTRACERS_initialFile(4)=' ',
(PID.TID 0000.0001) > PTRACERS_EvPrRn(4)= 0.,
(PID.TID 0000.0001) ># tracer 5 - o2
(PID.TID 0000.0001) > PTRACERS_names(5)='o2',
(PID.TID 0000.0001) > PTRACERS_long_names(5)='Dissolved Oxygen',
(PID.TID 0000.0001) > PTRACERS_units(5)='mol O/m^3',
(PID.TID 0000.0001) > PTRACERS_advScheme(5)=77,
(PID.TID 0000.0001) > PTRACERS_diffKh(5)=0.E3,
(PID.TID 0000.0001) > PTRACERS_diffKr(5)=3.E-5,
(PID.TID 0000.0001) > PTRACERS_useGMRedi(5)=.TRUE.
(PID.TID 0000.0001) > PTRACERS_useKPP(5)=.FALSE. ,
(PID.TID 0000.0001) > PTRACERS_initialFile(5)=' ',
(PID.TID 0000.0001) > PTRACERS_ref(1,5) = 15*.09,
(PID.TID 0000.0001) > PTRACERS_EvPrRn(5)= 0.,
(PID.TID 0000.0001) > /
(PID.TID 0000.0001) 
(PID.TID 0000.0001)  PTRACERS_READPARMS: finished reading data.ptracers
(PID.TID 0000.0001)  GCHEM_READPARMS: opening data.gchem
(PID.TID 0000.0001)  OPEN_COPY_DATA_FILE: opening file data.gchem
(PID.TID 0000.0001) // =======================================================
(PID.TID 0000.0001) // Parameter file "data.gchem"
(PID.TID 0000.0001) // =======================================================
(PID.TID 0000.0001) > &GCHEM_PARM01
(PID.TID 0000.0001) ># iceFile='fice.bin',
(PID.TID 0000.0001) ># windFile='tren_speed.bin',
(PID.TID 0000.0001) ># SilicaFile='sillev1.bin',
(PID.TID 0000.0001) >  useDIC=.TRUE.,
(PID.TID 0000.0001) >  nsubtime=1,
(PID.TID 0000.0001) > /
(PID.TID 0000.0001) 
(PID.TID 0000.0001)  GCHEM_READPARMS: finished reading data.gchem
(PID.TID 0000.0001)  DIC_READPARMS: opening data.dic
(PID.TID 0000.0001)  OPEN_COPY_DATA_FILE: opening file data.dic
(PID.TID 0000.0001) // =======================================================
(PID.TID 0000.0001) // Parameter file "data.dic"
(PID.TID 0000.0001) // =======================================================
(PID.TID 0000.0001) ># DIC parameters
(PID.TID 0000.0001) > &ABIOTIC_PARMS
(PID.TID 0000.0001) > /
(PID.TID 0000.0001) > &BIOTIC_PARMS
(PID.TID 0000.0001) > /
(PID.TID 0000.0001) > &DIC_FORCING
(PID.TID 0000.0001) > /
(PID.TID 0000.0001) 
(PID.TID 0000.0001)  DIC_READPARMS: finished reading data.dic
(PID.TID 0000.0001) 
(PID.TID 0000.0001) // ===================================
(PID.TID 0000.0001) // DIC package parameters :
(PID.TID 0000.0001) // ===================================
(PID.TID 0000.0001) Using Millero (1995)/Mehrbach K1 and K2 coefficients
(PID.TID 0000.0001) Using Dickson and Riley (1979) KF coefficient
(PID.TID 0000.0001) Using Uppstrom (1974) BT estimation from salinity
(PID.TID 0000.0001) Using Riley (1965) FT estimation from salinity
(PID.TID 0000.0001) permil = /* Ref. density to convert mol/m3 to mol/kg */
(PID.TID 0000.0001)                 9.760858955588092E-04
(PID.TID 0000.0001)     ;
(PID.TID 0000.0001) Pa2Atm = /* Atmosph. pressure conversion coeff (to Atm) */
(PID.TID 0000.0001)                 1.013250000000000E+05
(PID.TID 0000.0001)     ;
(PID.TID 0000.0001) DOPfraction = /* Fraction of new production going to DOP */
(PID.TID 0000.0001)                 6.700000000000000E-01
(PID.TID 0000.0001)     ;
(PID.TID 0000.0001) KDOPRemin = /* DOP remineralization rate (1/s) */
(PID.TID 0000.0001)                 6.430041152263375E-08
(PID.TID 0000.0001)     ;
(PID.TID 0000.0001) KRemin = /* Remin power law coeff. */
(PID.TID 0000.0001)                 9.000000000000000E-01
(PID.TID 0000.0001)     ;
(PID.TID 0000.0001) zcrit = /* Minimum depth for biological activity (m) */
(PID.TID 0000.0001)                 5.000000000000000E+02
(PID.TID 0000.0001)     ;
(PID.TID 0000.0001) O2crit = /* Critical oxygen level (mol/m3) */
(PID.TID 0000.0001)                 4.000000000000000E-03
(PID.TID 0000.0001)     ;
(PID.TID 0000.0001) R_OP = /* Stochiometric ratio R_OP */
(PID.TID 0000.0001)                -1.700000000000000E+02
(PID.TID 0000.0001)     ;
(PID.TID 0000.0001) R_CP = /* Stochiometric ratio R_CP */
(PID.TID 0000.0001)                 1.170000000000000E+02
(PID.TID 0000.0001)     ;
(PID.TID 0000.0001) R_NP = /* Stochiometric ratio R_NP */
(PID.TID 0000.0001)                 1.600000000000000E+01
(PID.TID 0000.0001)     ;
(PID.TID 0000.0001) R_FeP = /* Stochiometric ratio R_FeP */
(PID.TID 0000.0001)                 4.680000000000000E-04
(PID.TID 0000.0001)     ;
(PID.TID 0000.0001) zca = /* Scale depth for CaCO3 remineralization (m) */
(PID.TID 0000.0001)                 3.500000000000000E+03
(PID.TID 0000.0001)     ;
(PID.TID 0000.0001) parfrac = /* Fraction of Qsw that is PAR */
(PID.TID 0000.0001)                 4.000000000000000E-01
(PID.TID 0000.0001)     ;
(PID.TID 0000.0001) k0 = /* Light attentuation coefficient, water (1/m) */
(PID.TID 0000.0001)                 2.000000000000000E-02
(PID.TID 0000.0001)     ;
(PID.TID 0000.0001) kchl = /* Light attentuation coefficient, chlorophyll (m2/mg) */
(PID.TID 0000.0001)                 2.000000000000000E-02
(PID.TID 0000.0001)     ;
(PID.TID 0000.0001) lit0 = /* Half saturation light constant (W/m2) */
(PID.TID 0000.0001)                 3.000000000000000E+01
(PID.TID 0000.0001)     ;
(PID.TID 0000.0001) KPO4 = /* Half saturation phosphate constant (mol/m3) */
(PID.TID 0000.0001)                 5.000000000000000E-04
(PID.TID 0000.0001)     ;
(PID.TID 0000.0001) KFE = /* Half saturation fe constant (mol/m3) */
(PID.TID 0000.0001)                 1.200000000000000E-07
(PID.TID 0000.0001)     ;
(PID.TID 0000.0001) alpfe = /* Solubility of aeolian fe */
(PID.TID 0000.0001)                 1.000000000000000E-02
(PID.TID 0000.0001)     ;
(PID.TID 0000.0001) fesedflux_pcm = /* Sediment Fe flux = fesedflux_pcm*pflux+FeIntSec */
(PID.TID 0000.0001)                 7.208000000000001E-02
(PID.TID 0000.0001)     ;
(PID.TID 0000.0001) FeIntSec = /* Sediment Fe flux = fesedflux_pcm * pflux + FeIntSec */
(PID.TID 0000.0001)                 5.787037037037037E-12
(PID.TID 0000.0001)     ;
(PID.TID 0000.0001) freefemax = /* Max solubility of free iron (mol/m3) */
(PID.TID 0000.0001)                 3.000000000000000E-07
(PID.TID 0000.0001)     ;
(PID.TID 0000.0001) KScav = /* Iron scavenging rate */
(PID.TID 0000.0001)                 6.108539094650206E-09
(PID.TID 0000.0001)     ;
(PID.TID 0000.0001) ligand_stab = /* Ligand-free iron stability constant (m3/mol) */
(PID.TID 0000.0001)                 1.000000000000000E+08
(PID.TID 0000.0001)     ;
(PID.TID 0000.0001) ligand_tot = /* Total free ligand  (mol/m3) */
(PID.TID 0000.0001)                 1.000000000000000E-06
(PID.TID 0000.0001)     ;
(PID.TID 0000.0001) alphaUniform = /* Timescale for biological activity */
(PID.TID 0000.0001)                 6.430041152263375E-11
(PID.TID 0000.0001)     ;
(PID.TID 0000.0001) rainRatioUniform= /* Inorganic/organic carbon rain ratio */
(PID.TID 0000.0001)                 7.000000000000001E-02
(PID.TID 0000.0001)     ;
(PID.TID 0000.0001) QSW_underice  =  /* Flag for Qsw under Sea-Ice (i.e. SI fract included) */
(PID.TID 0000.0001)                   T
(PID.TID 0000.0001)     ;
(PID.TID 0000.0001) DIC_windFile =  /* File name of wind speeds */
(PID.TID 0000.0001)               ''
(PID.TID 0000.0001)     ;
(PID.TID 0000.0001) DIC_atmospFile=  /* File name of atmospheric pressure*/
(PID.TID 0000.0001)               ''
(PID.TID 0000.0001)     ;
(PID.TID 0000.0001) DIC_iceFile =  /* File name of seaice fraction */
(PID.TID 0000.0001)               ''
(PID.TID 0000.0001)     ;
(PID.TID 0000.0001) DIC_ironFile =  /* File name of aeolian iron flux */
(PID.TID 0000.0001)               ''
(PID.TID 0000.0001)     ;
(PID.TID 0000.0001) DIC_silicaFile=  /* File name of surface silica */
(PID.TID 0000.0001)               ''
(PID.TID 0000.0001)     ;
(PID.TID 0000.0001) DIC_parFile=  /* File name of photosynthetically available radiation */
(PID.TID 0000.0001)               ''
(PID.TID 0000.0001)     ;
(PID.TID 0000.0001) DIC_chlaFile=  /* File name of chlorophyll climatology */
(PID.TID 0000.0001)               ''
(PID.TID 0000.0001)     ;
(PID.TID 0000.0001) DIC_forcingPeriod = /* Periodic forcing parameter specific for DIC (s) */
(PID.TID 0000.0001)                 2.592000000000000E+06
(PID.TID 0000.0001)     ;
(PID.TID 0000.0001) DIC_forcingCycle = /* Periodic forcing parameter specific for DIC (s) */
(PID.TID 0000.0001)                 3.110400000000000E+07
(PID.TID 0000.0001)     ;
(PID.TID 0000.0001) dic_int1 =  /*  */
(PID.TID 0000.0001)                       0
(PID.TID 0000.0001)     ;
(PID.TID 0000.0001) dic_int2 =  /*  */
(PID.TID 0000.0001)                       0
(PID.TID 0000.0001)     ;
(PID.TID 0000.0001) dic_int3 =  /*  */
(PID.TID 0000.0001)                       0
(PID.TID 0000.0001)     ;
(PID.TID 0000.0001) dic_int4 =  /*  */
(PID.TID 0000.0001)                       0
(PID.TID 0000.0001)     ;
(PID.TID 0000.0001) dic_pCO2 = /* Atmospheric pCO2 to be read in data.dic */
(PID.TID 0000.0001)                 2.780000000000000E-04
(PID.TID 0000.0001)     ;
(PID.TID 0000.0001) GCHEM_TR_REGISTER:  Start registering GCHEM tracers
(PID.TID 0000.0001)   DIC_TR_REGISTER:  number of DIC tracers=    5
(PID.TID 0000.0001)   DIC_TR_REGISTER:   starting at pTrc num=    1
(PID.TID 0000.0001)   DIC_TR_REGISTER:  Numb. Trac & SepForc Trac:    5    5
(PID.TID 0000.0001) GCHEM_TR_REGISTER:  Numb. Trac & SepForc Trac:    5    5
(PID.TID 0000.0001) 
(PID.TID 0000.0001)  DIAGNOSTICS_READPARMS: opening data.diagnostics
(PID.TID 0000.0001)  OPEN_COPY_DATA_FILE: opening file data.diagnostics
(PID.TID 0000.0001) // =======================================================
(PID.TID 0000.0001) // Parameter file "data.diagnostics"
(PID.TID 0000.0001) // =======================================================
(PID.TID 0000.0001) ># Diagnostic Package Choices
(PID.TID 0000.0001) >#-----------------
(PID.TID 0000.0001) ># for each output-stream:
(PID.TID 0000.0001) >#  filename(n) : prefix of the output file name (only 8.c long) for outp.stream n
(PID.TID 0000.0001) >#  frequency(n):< 0 : write snap-shot output every |frequency| seconds
(PID.TID 0000.0001) >#               > 0 : write time-average output every frequency seconds
(PID.TID 0000.0001) >#  timePhase(n)     : write at time = timePhase + multiple of |frequency|
(PID.TID 0000.0001) >#  levels(:,n) : list of levels to write to file (Notes: declared as REAL)
(PID.TID 0000.0001) >#                 when this entry is missing, select all common levels of this list
(PID.TID 0000.0001) >#  fields(:,n) : list of diagnostics fields (8.c) (see "available_diagnostics" file
(PID.TID 0000.0001) >#                 for the list of all available diag. in this particular config)
(PID.TID 0000.0001) >#-----------------
(PID.TID 0000.0001) > &diagnostics_list
(PID.TID 0000.0001) >
(PID.TID 0000.0001) >  frequency(1) = 31104000.,
(PID.TID 0000.0001) >  frequency(1) = 1555200000.,
(PID.TID 0000.0001) >#  filename(1) = 'DiagOcnEta',
(PID.TID 0000.0001) >   fields(1,1) = 'ETAN    ','ETANSQ  ','surForcS','oceSflux',
(PID.TID 0000.0001) >
(PID.TID 0000.0001) >  frequency(2) = 31104000.,
(PID.TID 0000.0001) >  frequency(2) = 1555200000.,
(PID.TID 0000.0001) >#  filename(2) = 'DiagOcnTave',
(PID.TID 0000.0001) >   fields(1,2) = 'UVEL    ','VVEL    ','WVEL    ','THETA   ',
(PID.TID 0000.0001) >                 'SALT    ','PHIHYD  ','CONVADJ ',
(PID.TID 0000.0001) >#                'UVELSQ  ','VVELSQ  ','UV_VEL_C','THETASQ ',
(PID.TID 0000.0001) >#                'WVELTH  ','WVELSLT ',
(PID.TID 0000.0001) >
(PID.TID 0000.0001) >  frequency(3) = 31104000.,
(PID.TID 0000.0001) >  frequency(3) = 1555200000.,
(PID.TID 0000.0001) >#  filename(3) = 'DiagOcnExtra',
(PID.TID 0000.0001) >   fields(1,3) = 'UVELMASS','VVELMASS','UTHMASS ','VTHMASS ',
(PID.TID 0000.0001) >                 'USLTMASS','VSLTMASS','ADVx_SLT','ADVy_SLT',
(PID.TID 0000.0001) >                 'ADVx_TH ','ADVy_TH ','DRHODR  ','URHOMASS',
(PID.TID 0000.0001) >                 'VRHOMASS',
(PID.TID 0000.0001) >
(PID.TID 0000.0001) >  frequency(4) = 31104000.,
(PID.TID 0000.0001) >  frequency(4) = 1555200000.,
(PID.TID 0000.0001) >#  filename(4) = 'DiagOcnGM',
(PID.TID 0000.0001) >   fields(1,4) = 'GM_Kux  ','GM_Kvy  ','GM_Kwx  ','GM_Kwy  ',
(PID.TID 0000.0001) >                 'GM_Kwz  ','GM_PsiX ','GM_PsiY ','DFxE_TH ',
(PID.TID 0000.0001) >                 'DFyE_TH ','DFxE_SLT','DFyE_SLT',
(PID.TID 0000.0001) >
(PID.TID 0000.0001) >  frequency(5) =-31104000.,
(PID.TID 0000.0001) >  frequency(5) =-1555200000.,
(PID.TID 0000.0001) >  timePhase(5) = 0.,
(PID.TID 0000.0001) >#  filename(5) = 'DiagOcnEtai',
(PID.TID 0000.0001) >   fields(1,5) = 'RSURF   ',
(PID.TID 0000.0001) >
(PID.TID 0000.0001) >  frequency(6) =-31104000.,
(PID.TID 0000.0001) >  frequency(6) =-1555200000.,
(PID.TID 0000.0001) >  timePhase(6) = 0.,
(PID.TID 0000.0001) >#  filename(6) = 'DiagOcnTHi',
(PID.TID 0000.0001) >   fields(1,6) = 'THETA   ','SALT    ',
(PID.TID 0000.0001) >
(PID.TID 0000.0001) >  frequency(7) = 31104000.,
(PID.TID 0000.0001) >  frequency(7) = 1555200000.,
(PID.TID 0000.0001) >#  filename(7) = 'DiagBioGeo2d',
(PID.TID 0000.0001) >   fields(1,7) = 'DICPCO2 ','DICCFLX ','DICOFLX ','DICTFLX ',
(PID.TID 0000.0001) >                 'DICPHAV ',
(PID.TID 0000.0001) >
(PID.TID 0000.0001) >  frequency(8) = 31104000.,
(PID.TID 0000.0001) >  frequency(8) = 1555200000.,
(PID.TID 0000.0001) >#  filename(8) = 'DiagBioGeo3d',
(PID.TID 0000.0001) >   fields(1,8) = 'TRAC01  ','TRAC02  ','TRAC03  ','TRAC04  ',
(PID.TID 0000.0001) >                 'TRAC05  ','DICBIOA ','DICCARB ',
(PID.TID 0000.0001) >                 'ADVxTr03','ADVyTr03','DFxETr03','DFyETr03',
(PID.TID 0000.0001) >                 'ADVxTr04','ADVyTr04','DFxETr04','DFyETr04',
(PID.TID 0000.0001) >                 'UTRAC03 ','VTRAC03 ','UTRAC04 ','VTRAC04 ',
(PID.TID 0000.0001) >
(PID.TID 0000.0001) ># frequency(7) = 432000.,
(PID.TID 0000.0001) >#  filename(7) = 'DiagOcnPSI',
(PID.TID 0000.0001) >#  fields(1,7) = 'UVELMASS','VVELMASS','SALT    ','THETA   ',
(PID.TID 0000.0001) >#                'GM_PsiY ','GM_PsiX ',
(PID.TID 0000.0001) > /
(PID.TID 0000.0001) >
(PID.TID 0000.0001) ># Parameter for Diagnostics of per level statistics:
(PID.TID 0000.0001) >#-----------------
(PID.TID 0000.0001) ># for each output-stream:
(PID.TID 0000.0001) >#  stat_fname(n) : prefix of the output file name (only 8.c long) for outp.stream n
(PID.TID 0000.0001) >#  stat_freq(n):< 0 : write snap-shot output every |stat_freq| seconds
(PID.TID 0000.0001) >#               > 0 : write time-average output every stat_freq seconds
(PID.TID 0000.0001) >#  stat_phase(n)    : write at time = stat_phase + multiple of |stat_freq|
(PID.TID 0000.0001) >#  stat_region(:,n) : list of "regions" (default: 1 region only=global)
(PID.TID 0000.0001) >#  stat_fields(:,n) : list of diagnostics fields (8.c) (see "available_diagnostics.log"
(PID.TID 0000.0001) >#                 file for the list of all available diag. in this particular config)
(PID.TID 0000.0001) >#-----------------
(PID.TID 0000.0001) > &DIAG_STATIS_PARMS
(PID.TID 0000.0001) >  stat_fields(1,1)= 'TRAC01  ','DICCFLX ',
(PID.TID 0000.0001) >#                   'TRAC02  ','TRAC03  ','TRAC04  ','TRAC05  ',
(PID.TID 0000.0001) >#    stat_fname(1)= 'BioStDiag',
(PID.TID 0000.0001) >      stat_freq(1)= 31104000.,
(PID.TID 0000.0001) >#    stat_phase(1)= 0.,
(PID.TID 0000.0001) >
(PID.TID 0000.0001) > stat_fields(1:10,2) = 'CPL_SLPr','CPL_Qnet','CPL_Qsw ',
(PID.TID 0000.0001) >                       'CPL_tauX','CPL_tauY','CPL_sFlx','CPL_iceM',
(PID.TID 0000.0001) >                       'CPL_aCO2','CPL_wSpd','CPL_icFr',
(PID.TID 0000.0001) >#                      'CPL_iceH','CPL_snwH','CPL_Qic1','CPL_Qic2',
(PID.TID 0000.0001) >#                      'CPL_sPlm','CPL_RnOf',
(PID.TID 0000.0001) >#                      'SI_Fract','SI_Thick','SI_AdvFr','SI_AdvHi',
(PID.TID 0000.0001) >  stat_fName(2) = 'cplStDiag',
(PID.TID 0000.0001) >   stat_freq(2) = -3600.,
(PID.TID 0000.0001) >  stat_phase(2) = 0.,
(PID.TID 0000.0001) > /
(PID.TID 0000.0001) 
(PID.TID 0000.0001) S/R DIAGNOSTICS_READPARMS, read namelist "diagnostics_list": start
(PID.TID 0000.0001) S/R DIAGNOSTICS_READPARMS, read namelist "diagnostics_list": OK
(PID.TID 0000.0001) S/R DIAGNOSTICS_READPARMS, read namelist "DIAG_STATIS_PARMS": start
(PID.TID 0000.0001) S/R DIAGNOSTICS_READPARMS, read namelist "DIAG_STATIS_PARMS": OK
(PID.TID 0000.0001)  DIAGNOSTICS_READPARMS: global parameter summary:
(PID.TID 0000.0001)  dumpAtLast = /* always write time-ave diags at the end */
(PID.TID 0000.0001)                   F
(PID.TID 0000.0001)     ;
(PID.TID 0000.0001)  diag_mnc =   /* write NetCDF output files */
(PID.TID 0000.0001)                   F
(PID.TID 0000.0001)     ;
(PID.TID 0000.0001)  useMissingValue = /* put MissingValue where mask = 0 */
(PID.TID 0000.0001)                   F
(PID.TID 0000.0001)     ;
(PID.TID 0000.0001)  diagCG_maxIters = /* max number of iters in diag_cg2d */
(PID.TID 0000.0001)                     200
(PID.TID 0000.0001)     ;
(PID.TID 0000.0001)  diagCG_resTarget = /* residual target for diag_cg2d */
(PID.TID 0000.0001)                 1.000000000000000E-09
(PID.TID 0000.0001)     ;
(PID.TID 0000.0001)  diagCG_pcOffDFac = /* preconditioner off-diagonal factor */
(PID.TID 0000.0001)                 9.611687812379854E-01
(PID.TID 0000.0001)     ;
(PID.TID 0000.0001) -----------------------------------------------------
(PID.TID 0000.0001)  DIAGNOSTICS_READPARMS: active diagnostics summary:
(PID.TID 0000.0001) -----------------------------------------------------
(PID.TID 0000.0001) -----------------------------------------------------
(PID.TID 0000.0001)  DIAGNOSTICS_READPARMS: statistics diags. summary:
(PID.TID 0000.0001) Creating Stats. Output Stream: cplStDiag
(PID.TID 0000.0001) Output Frequency:      -3600.000000 ; Phase:           0.000000
(PID.TID 0000.0001)  Regions:   0
(PID.TID 0000.0001)  Fields:    CPL_SLPr CPL_Qnet CPL_Qsw  CPL_tauX CPL_tauY CPL_sFlx CPL_iceM CPL_aCO2 CPL_wSpd CPL_icFr
(PID.TID 0000.0001) -----------------------------------------------------
(PID.TID 0000.0001) 
(PID.TID 0000.0001)  CPL_READPARMS: opening data.cpl
(PID.TID 0000.0001)  OPEN_COPY_DATA_FILE: opening file data.cpl
(PID.TID 0000.0001) // =======================================================
(PID.TID 0000.0001) // Parameter file "data.cpl"
(PID.TID 0000.0001) // =======================================================
(PID.TID 0000.0001) ># Coupling package parameters, OCN component:
(PID.TID 0000.0001) >#    useImportHFlx   :: True => use the Imported HeatFlux from couler
(PID.TID 0000.0001) >#    useImportFW     :: True => use the Imported Fresh Water flux fr cpl
(PID.TID 0000.0001) >#    useImportTau    :: True => use the Imported Wind-Stress from couler
(PID.TID 0000.0001) >#    useImportSLP    :: True => use the Imported Sea-level Atmos. Pressure
(PID.TID 0000.0001) >#    useImportRunOff :: True => use the Imported RunOff flux from coupler
(PID.TID 0000.0001) >#    useImportSIce   :: True => use the Imported Sea-Ice mass as ice-loading
(PID.TID 0000.0001) >#    useImportThSIce :: True => use the Imported thSIce state var from coupler
(PID.TID 0000.0001) >#    useImportSltPlm :: True => use the Imported Salt-Plume flux from coupler
(PID.TID 0000.0001) >#    useImportFice   :: True => use the Imported Seaice fraction (DIC-only)
(PID.TID 0000.0001) >#    useImportCO2    :: True => use the Imported atmos. CO2 from coupler
(PID.TID 0000.0001) >#    useImportWSpd   :: True => use the Imported surf. Wind speed from coupler
(PID.TID 0000.0001) >#    cpl_taveFreq    :: Frequency^-1 for time-Aver. output (s)
(PID.TID 0000.0001) > &CPL_OCN_PARAM
(PID.TID 0000.0001) ># useImportHFlx  =.FALSE.,
(PID.TID 0000.0001) ># useImportFW    =.FALSE.,
(PID.TID 0000.0001) ># useImportTau   =.FALSE.,
(PID.TID 0000.0001) ># useImportSLP   =.FALSE.,
(PID.TID 0000.0001) ># useImportRunOff=.FALSE.,
(PID.TID 0000.0001) ># useImportSIce  =.FALSE.,
(PID.TID 0000.0001) ># useImportThSIce=.FALSE.,
(PID.TID 0000.0001) ># useImportSltPlm=.FALSE.,
(PID.TID 0000.0001) ># useImportFice  =.FALSE.,
(PID.TID 0000.0001) ># useImportCO2   =.FALSE.,
(PID.TID 0000.0001) ># useImportWSpd  =.FALSE.,
(PID.TID 0000.0001) ># cpl_taveFreq=31104000.,
(PID.TID 0000.0001) ># cpl_taveFreq=2592000.,
(PID.TID 0000.0001) >  cpl_taveFreq=36000.,
(PID.TID 0000.0001) > /
(PID.TID 0000.0001) 
(PID.TID 0000.0001)  CPL_READPARMS: finished reading data.cpl
(PID.TID 0000.0001) 
(PID.TID 0000.0001) // ===================================
(PID.TID 0000.0001) // Coupling set-up summary :
(PID.TID 0000.0001) // ===================================
(PID.TID 0000.0001) // -------
(PID.TID 0000.0001) // Coupler-exchange switch (received from coupler):
(PID.TID 0000.0001) ocn_cplSequential = /* use Sequential Coupling Exchange on/off flag */
(PID.TID 0000.0001)                   F
(PID.TID 0000.0001)     ;
(PID.TID 0000.0001) ocn_cplExch_RunOff = /* exchange RunOff fields with coupler on/off */
(PID.TID 0000.0001)                   F
(PID.TID 0000.0001)     ;
(PID.TID 0000.0001) ocn_cplExch1W_sIce = /* 1-way exchange of seaice vars with coupler */
(PID.TID 0000.0001)                   T
(PID.TID 0000.0001)     ;
(PID.TID 0000.0001) ocn_cplExch2W_sIce = /* 2-way exchange of ThSIce vars with coupler */
(PID.TID 0000.0001)                   F
(PID.TID 0000.0001)     ;
(PID.TID 0000.0001) ocn_cplExch_SaltPl = /* exchange Salt-Plume fields with coupler */
(PID.TID 0000.0001)                   F
(PID.TID 0000.0001)     ;
(PID.TID 0000.0001) ocn_cplExch_DIC    = /* exchange DIC    fields with coupler on/off */
(PID.TID 0000.0001)                   T
(PID.TID 0000.0001)     ;
(PID.TID 0000.0001) // -------
(PID.TID 0000.0001) // Coupler parameters (from local param file):
(PID.TID 0000.0001) useImportHFlx  = /* use Imported Heat-Flx fr Coupler on/off flag */
(PID.TID 0000.0001)                   T
(PID.TID 0000.0001)     ;
(PID.TID 0000.0001) useImportFW    = /* use Imported Fresh-Water fr Cpl. on/off flag */
(PID.TID 0000.0001)                   T
(PID.TID 0000.0001)     ;
(PID.TID 0000.0001) useImportTau   = /* use Imported Wind-Stress fr Cpl. on/off flag */
(PID.TID 0000.0001)                   T
(PID.TID 0000.0001)     ;
(PID.TID 0000.0001) useImportSLP   = /* use Imported Sea-level Atm Press on/off flag */
(PID.TID 0000.0001)                   T
(PID.TID 0000.0001)     ;
(PID.TID 0000.0001) useImportRunOff= /* use Imported Run-Off fr Cpl. on/off flag */
(PID.TID 0000.0001)                   F
(PID.TID 0000.0001)     ;
(PID.TID 0000.0001) useImportSIce  = /* use Imported Sea-Ice loading on/off flag */
(PID.TID 0000.0001)                   T
(PID.TID 0000.0001)     ;
(PID.TID 0000.0001) useImportThSIce= /* use Imported thSIce state-var on/off flag */
(PID.TID 0000.0001)                   F
(PID.TID 0000.0001)     ;
(PID.TID 0000.0001) useImportSltPlm= /* use Imported Salt-Plume flux on/off flag */
(PID.TID 0000.0001)                   F
(PID.TID 0000.0001)     ;
(PID.TID 0000.0001) useImportFice  = /* use Imported Seaice Frac (DIC-only) flag */
(PID.TID 0000.0001)                   T
(PID.TID 0000.0001)     ;
(PID.TID 0000.0001) useImportCO2   = /* use Imported Atmos. CO2 fr Cpl. on/off flag */
(PID.TID 0000.0001)                   T
(PID.TID 0000.0001)     ;
(PID.TID 0000.0001) useImportWSpd  = /* use Imported Windspeed fr Cpl. on/off flag */
(PID.TID 0000.0001)                   T
(PID.TID 0000.0001)     ;
(PID.TID 0000.0001) cpl_taveFreq = /* Frequency^-1 for time-Aver. output (s) */
(PID.TID 0000.0001)                 3.600000000000000E+04
(PID.TID 0000.0001)     ;
(PID.TID 0000.0001) cpl_timeave_mnc = /* write TimeAv to MNC file on/off flag */
(PID.TID 0000.0001)                   F
(PID.TID 0000.0001)     ;
(PID.TID 0000.0001) cpl_timeave_mdsio = /* write TimeAv to MDSIO file on/off flag */
(PID.TID 0000.0001)                   T
(PID.TID 0000.0001)     ;
(PID.TID 0000.0001) // ===================================
(PID.TID 0000.0001) // End of Coupling set-up summary
(PID.TID 0000.0001) // ===================================
(PID.TID 0000.0001) SET_PARMS: done
(PID.TID 0000.0001) Enter INI_VERTICAL_GRID: setInterFDr=    T ; setCenterDr=    F
(PID.TID 0000.0001) tile:   1 ; Read from file grid_cs24.face001.bin
(PID.TID 0000.0001)   => xC yC dxF dyF rA xG yG dxV dyU rAz dxC dyC rAw rAs dxG dyG AngleCS AngleSN
(PID.TID 0000.0001) tile:   2 ; Read from file grid_cs24.face002.bin
(PID.TID 0000.0001)   => xC yC dxF dyF rA xG yG dxV dyU rAz dxC dyC rAw rAs dxG dyG AngleCS AngleSN
(PID.TID 0000.0001) tile:   3 ; Read from file grid_cs24.face003.bin
(PID.TID 0000.0001)   => xC yC dxF dyF rA xG yG dxV dyU rAz dxC dyC rAw rAs dxG dyG AngleCS AngleSN
(PID.TID 0000.0001) tile:   4 ; Read from file grid_cs24.face004.bin
(PID.TID 0000.0001)   => xC yC dxF dyF rA xG yG dxV dyU rAz dxC dyC rAw rAs dxG dyG AngleCS AngleSN
(PID.TID 0000.0001) tile:   5 ; Read from file grid_cs24.face005.bin
(PID.TID 0000.0001)   => xC yC dxF dyF rA xG yG dxV dyU rAz dxC dyC rAw rAs dxG dyG AngleCS AngleSN
(PID.TID 0000.0001) tile:   6 ; Read from file grid_cs24.face006.bin
(PID.TID 0000.0001)   => xC yC dxF dyF rA xG yG dxV dyU rAz dxC dyC rAw rAs dxG dyG AngleCS AngleSN
(PID.TID 0000.0001) %MON XC_max                       =   1.7805765197394E+02
(PID.TID 0000.0001) %MON XC_min                       =  -1.7805765197394E+02
(PID.TID 0000.0001) %MON XC_mean                      =   1.6201032285271E-15
(PID.TID 0000.0001) %MON XC_sd                        =   1.0354458820627E+02
(PID.TID 0000.0001) %MON XG_max                       =   1.8000000000000E+02
(PID.TID 0000.0001) %MON XG_min                       =  -1.8000000000000E+02
(PID.TID 0000.0001) %MON XG_mean                      =  -1.1979166666666E+00
(PID.TID 0000.0001) %MON XG_sd                        =   1.0358013763898E+02
(PID.TID 0000.0001) %MON DXC_max                      =   4.3164275177360E+05
(PID.TID 0000.0001) %MON DXC_min                      =   1.5544064368070E+05
(PID.TID 0000.0001) %MON DXC_mean                     =   3.8137729468492E+05
(PID.TID 0000.0001) %MON DXC_sd                       =   4.5648204906727E+04
(PID.TID 0000.0001) %MON DXF_max                      =   4.3152108368226E+05
(PID.TID 0000.0001) %MON DXF_min                      =   1.7306052594037E+05
(PID.TID 0000.0001) %MON DXF_mean                     =   3.8137729468493E+05
(PID.TID 0000.0001) %MON DXF_sd                       =   4.5633006600253E+04
(PID.TID 0000.0001) %MON DXG_max                      =   4.3164334211044E+05
(PID.TID 0000.0001) %MON DXG_min                      =   1.4518254737938E+05
(PID.TID 0000.0001) %MON DXG_mean                     =   3.8133829104970E+05
(PID.TID 0000.0001) %MON DXG_sd                       =   4.5841416808576E+04
(PID.TID 0000.0001) %MON DXV_max                      =   4.3176524634847E+05
(PID.TID 0000.0001) %MON DXV_min                      =   1.0732343304956E+05
(PID.TID 0000.0001) %MON DXV_mean                     =   3.8133829104970E+05
(PID.TID 0000.0001) %MON DXV_sd                       =   4.5891068189112E+04
(PID.TID 0000.0001) %MON YC_max                       =   8.7254156388165E+01
(PID.TID 0000.0001) %MON YC_min                       =  -8.7254156388165E+01
(PID.TID 0000.0001) %MON YC_mean                      =   0.0000000000000E+00
(PID.TID 0000.0001) %MON YC_sd                        =   3.8673963661903E+01
(PID.TID 0000.0001) %MON YG_max                       =   9.0000000000000E+01
(PID.TID 0000.0001) %MON YG_min                       =  -9.0000000000000E+01
(PID.TID 0000.0001) %MON YG_mean                      =  -2.1053118096596E-15
(PID.TID 0000.0001) %MON YG_sd                        =   3.8675518589166E+01
(PID.TID 0000.0001) %MON DYC_max                      =   4.3164275177360E+05
(PID.TID 0000.0001) %MON DYC_min                      =   1.5544064368070E+05
(PID.TID 0000.0001) %MON DYC_mean                     =   3.8137729468492E+05
(PID.TID 0000.0001) %MON DYC_sd                       =   4.5648204906727E+04
(PID.TID 0000.0001) %MON DYF_max                      =   4.3152108368226E+05
(PID.TID 0000.0001) %MON DYF_min                      =   1.7306052594037E+05
(PID.TID 0000.0001) %MON DYF_mean                     =   3.8137729468493E+05
(PID.TID 0000.0001) %MON DYF_sd                       =   4.5633006600253E+04
(PID.TID 0000.0001) %MON DYG_max                      =   4.3164334211044E+05
(PID.TID 0000.0001) %MON DYG_min                      =   1.4518254737938E+05
(PID.TID 0000.0001) %MON DYG_mean                     =   3.8133829104970E+05
(PID.TID 0000.0001) %MON DYG_sd                       =   4.5841416808576E+04
(PID.TID 0000.0001) %MON DYU_max                      =   4.3176524634847E+05
(PID.TID 0000.0001) %MON DYU_min                      =   1.0732343304956E+05
(PID.TID 0000.0001) %MON DYU_mean                     =   3.8133829104970E+05
(PID.TID 0000.0001) %MON DYU_sd                       =   4.5891068189112E+04
(PID.TID 0000.0001) %MON RA_max                       =   1.8619372633388E+11
(PID.TID 0000.0001) %MON RA_min                       =   3.0523839741978E+10
(PID.TID 0000.0001) %MON RA_mean                      =   1.4755629312072E+11
(PID.TID 0000.0001) %MON RA_sd                        =   3.1208553587323E+10
(PID.TID 0000.0001) %MON RAW_max                      =   1.8629895842792E+11
(PID.TID 0000.0001) %MON RAW_min                      =   2.4599873215797E+10
(PID.TID 0000.0001) %MON RAW_mean                     =   1.4755629312072E+11
(PID.TID 0000.0001) %MON RAW_sd                       =   3.1210746169063E+10
(PID.TID 0000.0001) %MON RAS_max                      =   1.8629895842790E+11
(PID.TID 0000.0001) %MON RAS_min                      =   2.4599873215869E+10
(PID.TID 0000.0001) %MON RAS_mean                     =   1.4755629312072E+11
(PID.TID 0000.0001) %MON RAS_sd                       =   3.1210746169063E+10
(PID.TID 0000.0001) %MON RAZ_max                      =   1.8640401341433E+11
(PID.TID 0000.0001) %MON RAZ_min                      =   1.2426043242969E+10
(PID.TID 0000.0001) %MON RAZ_mean                     =   1.4754910212347E+11
(PID.TID 0000.0001) %MON RAZ_sd                       =   3.1243987777370E+10
(PID.TID 0000.0001) %MON AngleCS_max                  =   9.9999984025151E-01
(PID.TID 0000.0001) %MON AngleCS_min                  =  -9.9941231489034E-01
(PID.TID 0000.0001) %MON AngleCS_mean                 =   3.3079633569748E-01
(PID.TID 0000.0001) %MON AngleCS_sd                   =   6.2495902608821E-01
(PID.TID 0000.0001) %MON AngleSN_max                  =   9.9941231489034E-01
(PID.TID 0000.0001) %MON AngleSN_min                  =  -9.9999984025151E-01
(PID.TID 0000.0001) %MON AngleSN_mean                 =  -3.3079633569748E-01
(PID.TID 0000.0001) %MON AngleSN_sd                   =   6.2495902608821E-01
(PID.TID 0000.0001)  MDS_READ_FIELD: opening global file: DDrake.c24.Bathy.3p0km.bin
(PID.TID 0000.0001) // =======================================================
(PID.TID 0000.0001) // Field Model R_low (ini_masks_etc)
(PID.TID 0000.0001) // CMIN =         -3.000000000000000E+03
(PID.TID 0000.0001) // CMAX =         -3.000000000000000E+03
(PID.TID 0000.0001) // CINT =          0.000000000000000E+00
(PID.TID 0000.0001) // SYMBOLS (CMIN->CMAX): -abcdefghijklmnopqrstuvwxyz+
(PID.TID 0000.0001) //                  0.0: .
(PID.TID 0000.0001) // RANGE I (Lo:Hi:Step):(    -3:   148:     1)
(PID.TID 0000.0001) // RANGE J (Lo:Hi:Step):(    28:    -3:    -1)
(PID.TID 0000.0001) // RANGE K (Lo:Hi:Step):(   1:   1:   1)
(PID.TID 0000.0001) // =======================================================
(PID.TID 0000.0001) // =======================================================
(PID.TID 0000.0001) // END OF FIELD                                          =
(PID.TID 0000.0001) // =======================================================
(PID.TID 0000.0001) 
(PID.TID 0000.0001) // =======================================================
(PID.TID 0000.0001) // Field Model Ro_surf (ini_masks_etc)
(PID.TID 0000.0001) // CMIN =          1.000000000000000E+32
(PID.TID 0000.0001) // CMAX =         -1.000000000000000E+32
(PID.TID 0000.0001) // CINT =          0.000000000000000E+00
(PID.TID 0000.0001) // SYMBOLS (CMIN->CMAX): -abcdefghijklmnopqrstuvwxyz+
(PID.TID 0000.0001) //                  0.0: .
(PID.TID 0000.0001) // RANGE I (Lo:Hi:Step):(    -3:   148:     1)
(PID.TID 0000.0001) // RANGE J (Lo:Hi:Step):(    28:    -3:    -1)
(PID.TID 0000.0001) // RANGE K (Lo:Hi:Step):(   1:   1:   1)
(PID.TID 0000.0001) // =======================================================
(PID.TID 0000.0001) // =======================================================
(PID.TID 0000.0001) // END OF FIELD                                          =
(PID.TID 0000.0001) // =======================================================
(PID.TID 0000.0001) 
(PID.TID 0000.0001) // =======================================================
(PID.TID 0000.0001) // Field hFacC at iteration          0
(PID.TID 0000.0001) // CMIN =          1.000000000000000E+00
(PID.TID 0000.0001) // CMAX =          1.000000000000000E+00
(PID.TID 0000.0001) // CINT =          0.000000000000000E+00
(PID.TID 0000.0001) // SYMBOLS (CMIN->CMAX): -abcdefghijklmnopqrstuvwxyz+
(PID.TID 0000.0001) //                  0.0: .
(PID.TID 0000.0001) // RANGE I (Lo:Hi:Step):(    -3:   148:     1)
(PID.TID 0000.0001) // RANGE J (Lo:Hi:Step):(    28:    -3:    -1)
(PID.TID 0000.0001) // RANGE K (Lo:Hi:Step):(   1:   1:   1)
(PID.TID 0000.0001) // =======================================================
(PID.TID 0000.0001) // =======================================================
(PID.TID 0000.0001) // END OF FIELD                                          =
(PID.TID 0000.0001) // =======================================================
(PID.TID 0000.0001) 
(PID.TID 0000.0001) // =======================================================
(PID.TID 0000.0001) // Field hFacW at iteration          0
(PID.TID 0000.0001) // CMIN =          1.000000000000000E+00
(PID.TID 0000.0001) // CMAX =          1.000000000000000E+00
(PID.TID 0000.0001) // CINT =          0.000000000000000E+00
(PID.TID 0000.0001) // SYMBOLS (CMIN->CMAX): -abcdefghijklmnopqrstuvwxyz+
(PID.TID 0000.0001) //                  0.0: .
(PID.TID 0000.0001) // RANGE I (Lo:Hi:Step):(    -3:   148:     1)
(PID.TID 0000.0001) // RANGE J (Lo:Hi:Step):(    28:    -3:    -1)
(PID.TID 0000.0001) // RANGE K (Lo:Hi:Step):(   1:   1:   1)
(PID.TID 0000.0001) // =======================================================
(PID.TID 0000.0001) // =======================================================
(PID.TID 0000.0001) // END OF FIELD                                          =
(PID.TID 0000.0001) // =======================================================
(PID.TID 0000.0001) 
(PID.TID 0000.0001) // =======================================================
(PID.TID 0000.0001) // Field hFacS at iteration          0
(PID.TID 0000.0001) // CMIN =          1.000000000000000E+00
(PID.TID 0000.0001) // CMAX =          1.000000000000000E+00
(PID.TID 0000.0001) // CINT =          0.000000000000000E+00
(PID.TID 0000.0001) // SYMBOLS (CMIN->CMAX): -abcdefghijklmnopqrstuvwxyz+
(PID.TID 0000.0001) //                  0.0: .
(PID.TID 0000.0001) // RANGE I (Lo:Hi:Step):(    -3:   148:     1)
(PID.TID 0000.0001) // RANGE J (Lo:Hi:Step):(    28:    -3:    -1)
(PID.TID 0000.0001) // RANGE K (Lo:Hi:Step):(   1:   1:   1)
(PID.TID 0000.0001) // =======================================================
(PID.TID 0000.0001) // =======================================================
(PID.TID 0000.0001) // END OF FIELD                                          =
(PID.TID 0000.0001) // =======================================================
(PID.TID 0000.0001) 
(PID.TID 0000.0001) GAD_INIT_FIXED: GAD_OlMinSize=  1  0  1
(PID.TID 0000.0001) 
(PID.TID 0000.0001) // ===================================
(PID.TID 0000.0001) // GAD parameters :
(PID.TID 0000.0001) // ===================================
(PID.TID 0000.0001) tempAdvScheme =   /* Temp. Horiz.Advection scheme selector */
(PID.TID 0000.0001)                       2
(PID.TID 0000.0001)     ;
(PID.TID 0000.0001) tempVertAdvScheme =   /* Temp. Vert. Advection scheme selector */
(PID.TID 0000.0001)                       2
(PID.TID 0000.0001)     ;
(PID.TID 0000.0001) tempMultiDimAdvec =   /* use Muti-Dim Advec method for Temp */
(PID.TID 0000.0001)                   F
(PID.TID 0000.0001)     ;
(PID.TID 0000.0001) tempSOM_Advection = /* use 2nd Order Moment Advection for Temp */
(PID.TID 0000.0001)                   F
(PID.TID 0000.0001)     ;
(PID.TID 0000.0001) AdamsBashforthGt = /* apply Adams-Bashforth extrapolation on Gt */
(PID.TID 0000.0001)                   F
(PID.TID 0000.0001)     ;
(PID.TID 0000.0001) AdamsBashforth_T = /* apply Adams-Bashforth extrapolation on Temp */
(PID.TID 0000.0001)                   T
(PID.TID 0000.0001)     ;
(PID.TID 0000.0001) temp_stayPositive = /* use Smolarkiewicz Hack for Temperature */
(PID.TID 0000.0001)                   F
(PID.TID 0000.0001)     ;
(PID.TID 0000.0001) saltAdvScheme =   /* Salt. Horiz.advection scheme selector */
(PID.TID 0000.0001)                       2
(PID.TID 0000.0001)     ;
(PID.TID 0000.0001) saltVertAdvScheme =   /* Salt. Vert. Advection scheme selector */
(PID.TID 0000.0001)                       2
(PID.TID 0000.0001)     ;
(PID.TID 0000.0001) saltMultiDimAdvec =   /* use Muti-Dim Advec method for Salt */
(PID.TID 0000.0001)                   F
(PID.TID 0000.0001)     ;
(PID.TID 0000.0001) saltSOM_Advection = /* use 2nd Order Moment Advection for Salt */
(PID.TID 0000.0001)                   F
(PID.TID 0000.0001)     ;
(PID.TID 0000.0001) AdamsBashforthGs = /* apply Adams-Bashforth extrapolation on Gs */
(PID.TID 0000.0001)                   F
(PID.TID 0000.0001)     ;
(PID.TID 0000.0001) AdamsBashforth_S = /* apply Adams-Bashforth extrapolation on Salt */
(PID.TID 0000.0001)                   T
(PID.TID 0000.0001)     ;
(PID.TID 0000.0001) salt_stayPositive = /* use Smolarkiewicz Hack for Salinity */
(PID.TID 0000.0001)                   F
(PID.TID 0000.0001)     ;
(PID.TID 0000.0001) SmolarkiewiczMaxFrac = /* maximal fraction of tracer to flow out of a cell */
(PID.TID 0000.0001)                 1.000000000000000E+00
(PID.TID 0000.0001)     ;
(PID.TID 0000.0001) // ===================================
(PID.TID 0000.0001) PTRACERS_INIT_FIXED: updated GAD_OlMinSize=  2  0  2
 QQ load dic parameters, initial fixed
(PID.TID 0000.0001) 
(PID.TID 0000.0001) // ===================================
(PID.TID 0000.0001) //  DIC_INIT_FIXED parameters :
(PID.TID 0000.0001) nlev = /* Number of level over which Bio act is computed */
(PID.TID 0000.0001)                       7
(PID.TID 0000.0001)     ;
(PID.TID 0000.0001) ------------------------------------------------------------
(PID.TID 0000.0001) DIAGNOSTICS_SET_LEVELS: done
(PID.TID 0000.0001)  Total Nb of available Diagnostics: ndiagt=   311
(PID.TID 0000.0001)  write list of available Diagnostics to file: available_diagnostics.log
(PID.TID 0000.0001)   space allocated for all diagnostics:       0 levels
(PID.TID 0000.0001) DIAGNOSTICS_SET_POINTERS: done
(PID.TID 0000.0001) ------------------------------------------------------------
(PID.TID 0000.0001) DIAGSTATS_SET_REGIONS: define   0 regions:
(PID.TID 0000.0001) ------------------------------------------------------------
(PID.TID 0000.0001) SETDIAG: Allocate  1 Levels for Stats-Diag #   300 CPL_SLPr
(PID.TID 0000.0001) SETDIAG: Allocate  1 Levels for Stats-Diag #   301 CPL_Qnet
(PID.TID 0000.0001) SETDIAG: Allocate  1 Levels for Stats-Diag #   302 CPL_Qsw
(PID.TID 0000.0001) SETDIAG: Allocate  1 Levels for Stats-Diag #   303 CPL_tauX
(PID.TID 0000.0001) SETDIAG: Allocate  1 Levels for Stats-Diag #   304 CPL_tauY
(PID.TID 0000.0001) SETDIAG: Allocate  1 Levels for Stats-Diag #   306 CPL_sFlx
(PID.TID 0000.0001) SETDIAG: Allocate  1 Levels for Stats-Diag #   307 CPL_iceM
(PID.TID 0000.0001) SETDIAG: Allocate  1 Levels for Stats-Diag #   309 CPL_aCO2
(PID.TID 0000.0001) SETDIAG: Allocate  1 Levels for Stats-Diag #   310 CPL_wSpd
(PID.TID 0000.0001) SETDIAG: Allocate  1 Levels for Stats-Diag #   311 CPL_icFr
(PID.TID 0000.0001)   space allocated for all stats-diags:      10 levels
(PID.TID 0000.0001) DIAGSTATS_SET_POINTERS: done
(PID.TID 0000.0001) ------------------------------------------------------------
(PID.TID 0000.0001) DIAGSTATS_INI_IO: open file: cplStDiag.0185414400.txt , unit=     9
(PID.TID 0000.0001) INI_GLOBAL_DOMAIN: Found  24 CS-corner Pts in the domain
(PID.TID 0000.0001) %MON fCori_max                    =   1.4567502339562E-04
(PID.TID 0000.0001) %MON fCori_min                    =  -1.4567502339562E-04
(PID.TID 0000.0001) %MON fCori_mean                   =   0.0000000000000E+00
(PID.TID 0000.0001) %MON fCori_sd                     =   8.4202189509968E-05
(PID.TID 0000.0001) %MON fCoriG_max                   =   1.4584247033981E-04
(PID.TID 0000.0001) %MON fCoriG_min                   =  -1.4584247033981E-04
(PID.TID 0000.0001) %MON fCoriG_mean                  =   0.0000000000000E+00
(PID.TID 0000.0001) %MON fCoriG_sd                    =   8.4202189509968E-05
(PID.TID 0000.0001) %MON fCoriCos_max                 =   1.4576983647246E-04
(PID.TID 0000.0001) %MON fCoriCos_min                 =   6.9866811507555E-06
(PID.TID 0000.0001) %MON fCoriCos_mean                =   1.1514319395261E-04
(PID.TID 0000.0001) %MON fCoriCos_sd                  =   3.0365479132357E-05
(PID.TID 0000.0001) INI_CG2D: CG2D normalisation factor =  3.3082925581346296E-04
(PID.TID 0000.0001) 
(PID.TID 0000.0001) // =======================================================
(PID.TID 0000.0001) // Model configuration
(PID.TID 0000.0001) // =======================================================
(PID.TID 0000.0001) //
(PID.TID 0000.0001) // "Physical" paramters ( PARM01 in namelist )
(PID.TID 0000.0001) //
(PID.TID 0000.0001) buoyancyRelation = /* Type of relation to get Buoyancy */
(PID.TID 0000.0001)               'OCEANIC'
(PID.TID 0000.0001)     ;
(PID.TID 0000.0001) fluidIsAir   =  /* fluid major constituent is Air */
(PID.TID 0000.0001)                   F
(PID.TID 0000.0001)     ;
(PID.TID 0000.0001) fluidIsWater =  /* fluid major constituent is Water */
(PID.TID 0000.0001)                   T
(PID.TID 0000.0001)     ;
(PID.TID 0000.0001) usingPCoords =  /* use p (or p*) vertical coordinate */
(PID.TID 0000.0001)                   F
(PID.TID 0000.0001)     ;
(PID.TID 0000.0001) usingZCoords =  /* use z (or z*) vertical coordinate */
(PID.TID 0000.0001)                   T
(PID.TID 0000.0001)     ;
(PID.TID 0000.0001) tRef =   /* Reference temperature profile ( oC or K ) */
(PID.TID 0000.0001)                 1.650000000000000E+01,      /* K =  1 */
(PID.TID 0000.0001)                 1.400000000000000E+01,      /* K =  2 */
(PID.TID 0000.0001)                 1.350000000000000E+01,      /* K =  3 */
(PID.TID 0000.0001)                 1.300000000000000E+01,      /* K =  4 */
(PID.TID 0000.0001)                 1.200000000000000E+01,      /* K =  5 */
(PID.TID 0000.0001)                 1.000000000000000E+01,      /* K =  6 */
(PID.TID 0000.0001)                 6.700000000000000E+00,      /* K =  7 */
(PID.TID 0000.0001)                 4.000000000000000E+00,      /* K =  8 */
(PID.TID 0000.0001)                 2.200000000000000E+00,      /* K =  9 */
(PID.TID 0000.0001)                 1.000000000000000E+00,      /* K = 10 */
(PID.TID 0000.0001)                 2.000000000000000E-01,      /* K = 11 */
(PID.TID 0000.0001)                -3.000000000000000E-01,      /* K = 12 */
(PID.TID 0000.0001)                -7.000000000000000E-01,      /* K = 13 */
(PID.TID 0000.0001)                -1.100000000000000E+00,      /* K = 14 */
(PID.TID 0000.0001)                -1.400000000000000E+00       /* K = 15 */
(PID.TID 0000.0001)     ;
(PID.TID 0000.0001) sRef =   /* Reference salinity profile ( g/kg ) */
(PID.TID 0000.0001)    15 @  3.500000000000000E+01              /* K =  1: 15 */
(PID.TID 0000.0001)     ;
(PID.TID 0000.0001) useStrainTensionVisc= /* Use StrainTension Form of Viscous Operator */
(PID.TID 0000.0001)                   F
(PID.TID 0000.0001)     ;
(PID.TID 0000.0001) useVariableVisc = /* Use variable horizontal viscosity */
(PID.TID 0000.0001)                   F
(PID.TID 0000.0001)     ;
(PID.TID 0000.0001) useHarmonicVisc = /* Use harmonic horizontal viscosity */
(PID.TID 0000.0001)                   T
(PID.TID 0000.0001)     ;
(PID.TID 0000.0001) useBiharmonicVisc= /* Use biharmonic horiz.  viscosity */
(PID.TID 0000.0001)                   F
(PID.TID 0000.0001)     ;
(PID.TID 0000.0001) useSmag3D = /* Use isotropic 3-D Smagorinsky viscosity */
(PID.TID 0000.0001)                   F
(PID.TID 0000.0001)     ;
(PID.TID 0000.0001) viscAh  =   /* Lateral harmonic viscosity ( m^2/s ) */
(PID.TID 0000.0001)                 3.000000000000000E+05
(PID.TID 0000.0001)     ;
(PID.TID 0000.0001) viscA4  =   /* Lateral biharmonic viscosity ( m^4/s ) */
(PID.TID 0000.0001)                 0.000000000000000E+00
(PID.TID 0000.0001)     ;
(PID.TID 0000.0001) no_slip_sides =  /* Viscous BCs: No-slip sides */
(PID.TID 0000.0001)                   T
(PID.TID 0000.0001)     ;
(PID.TID 0000.0001) sideDragFactor = /* side-drag scaling factor (non-dim) */
(PID.TID 0000.0001)                 2.000000000000000E+00
(PID.TID 0000.0001)     ;
(PID.TID 0000.0001) viscArNr = /* vertical profile of vertical viscosity ( m^2/s )*/
(PID.TID 0000.0001)    15 @  1.000000000000000E-03              /* K =  1: 15 */
(PID.TID 0000.0001)     ;
(PID.TID 0000.0001) no_slip_bottom =  /* Viscous BCs: No-slip bottom */
(PID.TID 0000.0001)                   T
(PID.TID 0000.0001)     ;
(PID.TID 0000.0001) bottomVisc_pCell = /* Partial-cell in bottom Visc. BC */
(PID.TID 0000.0001)                   F
(PID.TID 0000.0001)     ;
(PID.TID 0000.0001) bottomDragLinear = /* linear bottom-drag coefficient ( m/s ) */
(PID.TID 0000.0001)                 1.000000000000000E-03
(PID.TID 0000.0001)     ;
(PID.TID 0000.0001) bottomDragQuadratic = /* quadratic bottom-drag coefficient (-) */
(PID.TID 0000.0001)                 0.000000000000000E+00
(PID.TID 0000.0001)     ;
(PID.TID 0000.0001) selectBotDragQuadr = /* select quadratic bottom drag options */
(PID.TID 0000.0001)                      -1
(PID.TID 0000.0001)     ;
(PID.TID 0000.0001) diffKhT =   /* Laplacian diffusion of heat laterally ( m^2/s ) */
(PID.TID 0000.0001)                 0.000000000000000E+00
(PID.TID 0000.0001)     ;
(PID.TID 0000.0001) diffK4T =   /* Biharmonic diffusion of heat laterally ( m^4/s ) */
(PID.TID 0000.0001)                 0.000000000000000E+00
(PID.TID 0000.0001)     ;
(PID.TID 0000.0001) diffKhS =   /* Laplacian diffusion of salt laterally ( m^2/s ) */
(PID.TID 0000.0001)                 0.000000000000000E+00
(PID.TID 0000.0001)     ;
(PID.TID 0000.0001) diffK4S =   /* Biharmonic diffusion of salt laterally ( m^4/s ) */
(PID.TID 0000.0001)                 0.000000000000000E+00
(PID.TID 0000.0001)     ;
(PID.TID 0000.0001) diffKrNrT = /* vertical profile of vertical diffusion of Temp ( m^2/s )*/
(PID.TID 0000.0001)    15 @  3.000000000000000E-05              /* K =  1: 15 */
(PID.TID 0000.0001)     ;
(PID.TID 0000.0001) diffKrNrS = /* vertical profile of vertical diffusion of Salt ( m^2/s )*/
(PID.TID 0000.0001)    15 @  3.000000000000000E-05              /* K =  1: 15 */
(PID.TID 0000.0001)     ;
(PID.TID 0000.0001) diffKrBL79surf = /* Surface diffusion for Bryan and Lewis 79 ( m^2/s ) */
(PID.TID 0000.0001)                 0.000000000000000E+00
(PID.TID 0000.0001)     ;
(PID.TID 0000.0001) diffKrBL79deep = /* Deep diffusion for Bryan and Lewis 1979 ( m^2/s ) */
(PID.TID 0000.0001)                 0.000000000000000E+00
(PID.TID 0000.0001)     ;
(PID.TID 0000.0001) diffKrBL79scl = /* Depth scale for Bryan and Lewis 1979 ( m ) */
(PID.TID 0000.0001)                 2.000000000000000E+02
(PID.TID 0000.0001)     ;
(PID.TID 0000.0001) diffKrBL79Ho = /* Turning depth for Bryan and Lewis 1979 ( m ) */
(PID.TID 0000.0001)                -2.000000000000000E+03
(PID.TID 0000.0001)     ;
(PID.TID 0000.0001) ivdc_kappa = /* Implicit Vertical Diffusivity for Convection ( m^2/s) */
(PID.TID 0000.0001)                 1.000000000000000E+01
(PID.TID 0000.0001)     ;
(PID.TID 0000.0001) hMixCriteria=  /* Criteria for mixed-layer diagnostic */
(PID.TID 0000.0001)                -8.000000000000000E-01
(PID.TID 0000.0001)     ;
(PID.TID 0000.0001) dRhoSmall =  /* Parameter for mixed-layer diagnostic */
(PID.TID 0000.0001)                 1.000000000000000E-06
(PID.TID 0000.0001)     ;
(PID.TID 0000.0001) hMixSmooth=  /* Smoothing parameter for mixed-layer diagnostic */
(PID.TID 0000.0001)                 0.000000000000000E+00
(PID.TID 0000.0001)     ;
(PID.TID 0000.0001) eosType =  /* Type of Equation of State */
(PID.TID 0000.0001)               'JMD95Z'
(PID.TID 0000.0001)     ;
(PID.TID 0000.0001) eosRefP0 = /* Reference atmospheric pressure for EOS ( Pa ) */
(PID.TID 0000.0001)                 1.013250000000000E+05
(PID.TID 0000.0001)     ;
(PID.TID 0000.0001) selectP_inEOS_Zc = /* select pressure to use in EOS (0,1,2,3) */
(PID.TID 0000.0001)                       0
(PID.TID 0000.0001)     0= -g*rhoConst*z ; 1= pRef (from tRef,sRef); 2= Hyd P ; 3= Hyd+NH P
(PID.TID 0000.0001)     ;
(PID.TID 0000.0001) surf_pRef = /* Surface reference pressure ( Pa ) */
(PID.TID 0000.0001)                 1.013250000000000E+05
(PID.TID 0000.0001)     ;
(PID.TID 0000.0001) HeatCapacity_Cp =  /* Specific heat capacity ( J/kg/K ) */
(PID.TID 0000.0001)                 3.994000000000000E+03
(PID.TID 0000.0001)     ;
(PID.TID 0000.0001) celsius2K = /* 0 degree Celsius converted to Kelvin ( K ) */
(PID.TID 0000.0001)                 2.731500000000000E+02
(PID.TID 0000.0001)     ;
(PID.TID 0000.0001) rhoConst  = /* Reference density (Boussinesq)  ( kg/m^3 ) */
(PID.TID 0000.0001)                 1.030000000000000E+03
(PID.TID 0000.0001)     ;
(PID.TID 0000.0001) rhoFacC = /* normalized Reference density @ cell-Center (-) */
(PID.TID 0000.0001)    15 @  1.000000000000000E+00              /* K =  1: 15 */
(PID.TID 0000.0001)     ;
(PID.TID 0000.0001) rhoFacF = /* normalized Reference density @ W-Interface (-) */
(PID.TID 0000.0001)    16 @  1.000000000000000E+00              /* K =  1: 16 */
(PID.TID 0000.0001)     ;
(PID.TID 0000.0001) rhoConstFresh = /* Fresh-water reference density ( kg/m^3 ) */
(PID.TID 0000.0001)                 1.000000000000000E+03
(PID.TID 0000.0001)     ;
(PID.TID 0000.0001) gravity =   /* Gravitational acceleration ( m/s^2 ) */
(PID.TID 0000.0001)                 9.810000000000000E+00
(PID.TID 0000.0001)     ;
(PID.TID 0000.0001) gBaro =   /* Barotropic gravity ( m/s^2 ) */
(PID.TID 0000.0001)                 9.810000000000000E+00
(PID.TID 0000.0001)     ;
(PID.TID 0000.0001) gravFacC = /* gravity factor (vs surf.) @ cell-Center (-) */
(PID.TID 0000.0001)    15 @  1.000000000000000E+00              /* K =  1: 15 */
(PID.TID 0000.0001)     ;
(PID.TID 0000.0001) gravFacF = /* gravity factor (vs surf.) @ W-Interface (-) */
(PID.TID 0000.0001)    16 @  1.000000000000000E+00              /* K =  1: 16 */
(PID.TID 0000.0001)     ;
(PID.TID 0000.0001) rotationPeriod =   /* Rotation Period ( s ) */
(PID.TID 0000.0001)                 8.616400000000000E+04
(PID.TID 0000.0001)     ;
(PID.TID 0000.0001) omega =   /* Angular velocity ( rad/s ) */
(PID.TID 0000.0001)                 7.292123516990375E-05
(PID.TID 0000.0001)     ;
(PID.TID 0000.0001) f0 =   /* Reference coriolis parameter ( 1/s ) */
(PID.TID 0000.0001)                 1.000000000000000E-04
(PID.TID 0000.0001)     ;
(PID.TID 0000.0001) beta =   /* Beta ( 1/(m.s) ) */
(PID.TID 0000.0001)                 9.999999999999999E-12
(PID.TID 0000.0001)     ;
(PID.TID 0000.0001) fPrime =   /* Second coriolis parameter ( 1/s ) */
(PID.TID 0000.0001)                 0.000000000000000E+00
(PID.TID 0000.0001)     ;
(PID.TID 0000.0001) rigidLid =   /* Rigid lid on/off flag */
(PID.TID 0000.0001)                   F
(PID.TID 0000.0001)     ;
(PID.TID 0000.0001) implicitFreeSurface =   /* Implicit free surface on/off flag */
(PID.TID 0000.0001)                   T
(PID.TID 0000.0001)     ;
(PID.TID 0000.0001) freeSurfFac =   /* Implicit free surface factor */
(PID.TID 0000.0001)                 1.000000000000000E+00
(PID.TID 0000.0001)     ;
(PID.TID 0000.0001) implicSurfPress =  /* Surface Pressure implicit factor (0-1) */
(PID.TID 0000.0001)                 1.000000000000000E+00
(PID.TID 0000.0001)     ;
(PID.TID 0000.0001) implicDiv2DFlow =  /* Barot. Flow Div. implicit factor (0-1) */
(PID.TID 0000.0001)                 1.000000000000000E+00
(PID.TID 0000.0001)     ;
(PID.TID 0000.0001) uniformLin_PhiSurf = /* use uniform Bo_surf on/off flag */
(PID.TID 0000.0001)                   T
(PID.TID 0000.0001)     ;
(PID.TID 0000.0001) uniformFreeSurfLev = /* free-surface level-index is uniform */
(PID.TID 0000.0001)                   T
(PID.TID 0000.0001)     ;
(PID.TID 0000.0001) sIceLoadFac =  /* scale factor for sIceLoad (0-1) */
(PID.TID 0000.0001)                 1.000000000000000E+00
(PID.TID 0000.0001)     ;
(PID.TID 0000.0001) hFacMin =   /* minimum partial cell factor (hFac) */
(PID.TID 0000.0001)                 1.000000000000000E-01
(PID.TID 0000.0001)     ;
(PID.TID 0000.0001) hFacMinDr = /* minimum partial cell thickness ( m) */
(PID.TID 0000.0001)                 2.000000000000000E+01
(PID.TID 0000.0001)     ;
(PID.TID 0000.0001) exactConserv =  /* Exact Volume Conservation on/off flag */
(PID.TID 0000.0001)                   T
(PID.TID 0000.0001)     ;
(PID.TID 0000.0001) linFSConserveTr = /* Tracer correction for Lin Free Surface on/off flag */
(PID.TID 0000.0001)                   F
(PID.TID 0000.0001)     ;
(PID.TID 0000.0001) nonlinFreeSurf = /* Non-linear Free Surf. options (-1,0,1,2,3)*/
(PID.TID 0000.0001)                       4
(PID.TID 0000.0001)      -1,0= Off ; 1,2,3= On, 2=+rescale gU,gV, 3=+update cg2d solv.
(PID.TID 0000.0001)     ;
(PID.TID 0000.0001) hFacInf =   /* lower threshold for hFac (nonlinFreeSurf only)*/
(PID.TID 0000.0001)                 2.000000000000000E-01
(PID.TID 0000.0001)     ;
(PID.TID 0000.0001) hFacSup =   /* upper threshold for hFac (nonlinFreeSurf only)*/
(PID.TID 0000.0001)                 2.000000000000000E+00
(PID.TID 0000.0001)     ;
(PID.TID 0000.0001) select_rStar = /* r* Vertical coord. options (=0 r coord.; >0 uses r*)*/
(PID.TID 0000.0001)                       2
(PID.TID 0000.0001)     ;
(PID.TID 0000.0001) useRealFreshWaterFlux = /* Real Fresh Water Flux on/off flag*/
(PID.TID 0000.0001)                   T
(PID.TID 0000.0001)     ;
(PID.TID 0000.0001) temp_EvPrRn = /* Temp. of Evap/Prec/R (UNSET=use local T)(oC)*/
(PID.TID 0000.0001)                 0.000000000000000E+00
(PID.TID 0000.0001)     ;
(PID.TID 0000.0001) salt_EvPrRn = /* Salin. of Evap/Prec/R (UNSET=use local S)(g/kg)*/
(PID.TID 0000.0001)                 0.000000000000000E+00
(PID.TID 0000.0001)     ;
(PID.TID 0000.0001) selectAddFluid = /* option for mass source/sink of fluid (=0: off) */
(PID.TID 0000.0001)                       0
(PID.TID 0000.0001)     ;
(PID.TID 0000.0001) temp_addMass = /* Temp. of addMass array (UNSET=use local T)(oC)*/
(PID.TID 0000.0001)                 0.000000000000000E+00
(PID.TID 0000.0001)     ;
(PID.TID 0000.0001) salt_addMass = /* Salin. of addMass array (UNSET=use local S)(g/kg)*/
(PID.TID 0000.0001)                 0.000000000000000E+00
(PID.TID 0000.0001)     ;
(PID.TID 0000.0001) use3Dsolver = /* use 3-D pressure solver on/off flag */
(PID.TID 0000.0001)                   F
(PID.TID 0000.0001)     ;
(PID.TID 0000.0001) nonHydrostatic =  /* Non-Hydrostatic on/off flag */
(PID.TID 0000.0001)                   F
(PID.TID 0000.0001)     ;
(PID.TID 0000.0001) nh_Am2 = /* Non-Hydrostatic terms scaling factor */
(PID.TID 0000.0001)                 1.000000000000000E+00
(PID.TID 0000.0001)     ;
(PID.TID 0000.0001) implicitNHPress = /* Non-Hyd Pressure implicit factor (0-1)*/
(PID.TID 0000.0001)                 1.000000000000000E+00
(PID.TID 0000.0001)     ;
(PID.TID 0000.0001) selectNHfreeSurf = /* Non-Hyd (free-)Surface option */
(PID.TID 0000.0001)                       0
(PID.TID 0000.0001)     ;
(PID.TID 0000.0001) quasiHydrostatic = /* Quasi-Hydrostatic on/off flag */
(PID.TID 0000.0001)                   F
(PID.TID 0000.0001)     ;
(PID.TID 0000.0001) calc_wVelocity = /* vertical velocity calculation on/off flag */
(PID.TID 0000.0001)                   T
(PID.TID 0000.0001)     ;
(PID.TID 0000.0001) momStepping =  /* Momentum equation on/off flag */
(PID.TID 0000.0001)                   T
(PID.TID 0000.0001)     ;
(PID.TID 0000.0001) vectorInvariantMomentum= /* Vector-Invariant Momentum on/off */
(PID.TID 0000.0001)                   T
(PID.TID 0000.0001)     ;
(PID.TID 0000.0001) momAdvection =  /* Momentum advection on/off flag */
(PID.TID 0000.0001)                   T
(PID.TID 0000.0001)     ;
(PID.TID 0000.0001) momViscosity =  /* Momentum viscosity on/off flag */
(PID.TID 0000.0001)                   T
(PID.TID 0000.0001)     ;
(PID.TID 0000.0001) momImplVertAdv= /* Momentum implicit vert. advection on/off*/
(PID.TID 0000.0001)                   F
(PID.TID 0000.0001)     ;
(PID.TID 0000.0001) implicitViscosity = /* Implicit viscosity on/off flag */
(PID.TID 0000.0001)                   F
(PID.TID 0000.0001)     ;
(PID.TID 0000.0001) selectImplicitDrag= /* Implicit bot Drag options (0,1,2)*/
(PID.TID 0000.0001)                       0
(PID.TID 0000.0001)     0= Expl. ; 1= Impl. on provis. Vel ; 2= Fully Impl (with surf.P)
(PID.TID 0000.0001)     ;
(PID.TID 0000.0001) metricTerms =  /* metric-Terms on/off flag */
(PID.TID 0000.0001)                   F
(PID.TID 0000.0001)     ;
(PID.TID 0000.0001) useNHMTerms = /* Non-Hydrostatic Metric-Terms on/off */
(PID.TID 0000.0001)                   F
(PID.TID 0000.0001)     ;
(PID.TID 0000.0001) selectCoriMap = /* Coriolis Map options (0,1,2,3)*/
(PID.TID 0000.0001)                       2
(PID.TID 0000.0001)     0= f-Plane ; 1= Beta-Plane ; 2= Spherical ; 3= read from file
(PID.TID 0000.0001)     ;
(PID.TID 0000.0001) use3dCoriolis = /* 3-D Coriolis on/off flag */
(PID.TID 0000.0001)                   F
(PID.TID 0000.0001)     ;
(PID.TID 0000.0001) useCoriolis =  /* Coriolis on/off flag */
(PID.TID 0000.0001)                   T
(PID.TID 0000.0001)     ;
(PID.TID 0000.0001) useCDscheme =  /* CD scheme on/off flag */
(PID.TID 0000.0001)                   F
(PID.TID 0000.0001)     ;
(PID.TID 0000.0001) selectCoriScheme= /* Scheme selector for Coriolis-Term */
(PID.TID 0000.0001)                       0
(PID.TID 0000.0001)    = 0 : original discretization (simple averaging, no hFac)
(PID.TID 0000.0001)    = 1 : Wet-point averaging (Jamar & Ozer 1986)
(PID.TID 0000.0001)    = 2 : hFac weighted average (Angular Mom. conserving)
(PID.TID 0000.0001)    = 3 : energy conserving scheme using hFac weighted average
(PID.TID 0000.0001)     ;
(PID.TID 0000.0001) useAbsVorticity= /* V.I Works with f+zeta in Coriolis */
(PID.TID 0000.0001)                   F
(PID.TID 0000.0001)     ;
(PID.TID 0000.0001) selectVortScheme= /* V.I Scheme selector for Vorticity-Term */
(PID.TID 0000.0001)                       1
(PID.TID 0000.0001)    = 0 : enstrophy (Shallow-Water Eq.) conserving scheme by Sadourny, JAS 75
(PID.TID 0000.0001)    = 1 : same as 0 with modified hFac
(PID.TID 0000.0001)    = 2 : energy conserving scheme (used by Sadourny in JAS 75 paper)
(PID.TID 0000.0001)    = 3 : energy (general) and enstrophy (2D, nonDiv.) conserving scheme
(PID.TID 0000.0001)          from Sadourny (Burridge & Haseler, ECMWF Rep.4, 1977)
(PID.TID 0000.0001)     ;
(PID.TID 0000.0001) useJamartMomAdv= /* V.I Non-linear terms Jamart flag */
(PID.TID 0000.0001)                   F
(PID.TID 0000.0001)     ;
(PID.TID 0000.0001) upwindVorticity= /* V.I Upwind bias vorticity flag */
(PID.TID 0000.0001)                   F
(PID.TID 0000.0001)     ;
(PID.TID 0000.0001) highOrderVorticity= /* V.I High order vort. advect. flag */
(PID.TID 0000.0001)                   F
(PID.TID 0000.0001)     ;
(PID.TID 0000.0001) upwindShear= /* V.I Upwind vertical Shear advection flag */
(PID.TID 0000.0001)                   F
(PID.TID 0000.0001)     ;
(PID.TID 0000.0001) selectKEscheme= /* V.I Kinetic Energy scheme selector */
(PID.TID 0000.0001)                       0
(PID.TID 0000.0001)     ;
(PID.TID 0000.0001) momForcing =  /* Momentum forcing on/off flag */
(PID.TID 0000.0001)                   T
(PID.TID 0000.0001)     ;
(PID.TID 0000.0001) momTidalForcing = /* Momentum Tidal forcing on/off flag */
(PID.TID 0000.0001)                   T
(PID.TID 0000.0001)     ;
(PID.TID 0000.0001) momPressureForcing =  /* Momentum pressure term on/off flag */
(PID.TID 0000.0001)                   T
(PID.TID 0000.0001)     ;
(PID.TID 0000.0001) implicitIntGravWave= /* Implicit Internal Gravity Wave flag */
(PID.TID 0000.0001)                   F
(PID.TID 0000.0001)     ;
(PID.TID 0000.0001) staggerTimeStep =    /* Stagger time stepping on/off flag */
(PID.TID 0000.0001)                   T
(PID.TID 0000.0001)     ;
(PID.TID 0000.0001) doResetHFactors = /* reset thickness factors @ each time-step */
(PID.TID 0000.0001)                   F
(PID.TID 0000.0001)     ;
(PID.TID 0000.0001) multiDimAdvection =  /* enable/disable Multi-Dim Advection */
(PID.TID 0000.0001)                   T
(PID.TID 0000.0001)     ;
(PID.TID 0000.0001) useMultiDimAdvec =   /* Multi-Dim Advection is/is-not used */
(PID.TID 0000.0001)                   T
(PID.TID 0000.0001)     ;
(PID.TID 0000.0001) implicitDiffusion = /* Implicit Diffusion on/off flag */
(PID.TID 0000.0001)                   T
(PID.TID 0000.0001)     ;
(PID.TID 0000.0001) tempStepping =  /* Temperature equation on/off flag */
(PID.TID 0000.0001)                   T
(PID.TID 0000.0001)     ;
(PID.TID 0000.0001) tempAdvection = /* Temperature advection on/off flag */
(PID.TID 0000.0001)                   T
(PID.TID 0000.0001)     ;
(PID.TID 0000.0001) tempImplVertAdv = /* Temp. implicit vert. advection on/off */
(PID.TID 0000.0001)                   F
(PID.TID 0000.0001)     ;
(PID.TID 0000.0001) tempForcing  =  /* Temperature forcing on/off flag */
(PID.TID 0000.0001)                   T
(PID.TID 0000.0001)     ;
(PID.TID 0000.0001) doThetaClimRelax = /* apply SST relaxation on/off flag */
(PID.TID 0000.0001)                   F
(PID.TID 0000.0001)     ;
(PID.TID 0000.0001) tempIsActiveTr = /* Temp. is a dynamically Active Tracer */
(PID.TID 0000.0001)                   T
(PID.TID 0000.0001)     ;
(PID.TID 0000.0001) saltStepping =  /* Salinity equation on/off flag */
(PID.TID 0000.0001)                   T
(PID.TID 0000.0001)     ;
(PID.TID 0000.0001) saltAdvection = /* Salinity advection on/off flag */
(PID.TID 0000.0001)                   T
(PID.TID 0000.0001)     ;
(PID.TID 0000.0001) saltImplVertAdv = /* Sali. implicit vert. advection on/off */
(PID.TID 0000.0001)                   F
(PID.TID 0000.0001)     ;
(PID.TID 0000.0001) saltForcing  =  /* Salinity forcing on/off flag */
(PID.TID 0000.0001)                   T
(PID.TID 0000.0001)     ;
(PID.TID 0000.0001) doSaltClimRelax = /* apply SSS relaxation on/off flag */
(PID.TID 0000.0001)                   F
(PID.TID 0000.0001)     ;
(PID.TID 0000.0001) saltIsActiveTr = /* Salt  is a dynamically Active Tracer */
(PID.TID 0000.0001)                   T
(PID.TID 0000.0001)     ;
(PID.TID 0000.0001)  readBinaryPrec = /* Precision used for reading binary files */
(PID.TID 0000.0001)                      64
(PID.TID 0000.0001)     ;
(PID.TID 0000.0001) writeBinaryPrec = /* Precision used for writing binary files */
(PID.TID 0000.0001)                      64
(PID.TID 0000.0001)     ;
(PID.TID 0000.0001)  rwSuffixType =   /* select format of mds file suffix */
(PID.TID 0000.0001)                       0
(PID.TID 0000.0001)    = 0 : myIter (I10.10) ;   = 1 : 100*myTime (100th sec) ;
(PID.TID 0000.0001)    = 2 : myTime (seconds);   = 3 : myTime/360 (10th of hr);
(PID.TID 0000.0001)    = 4 : myTime/3600 (hours)
(PID.TID 0000.0001)     ;
(PID.TID 0000.0001)  globalFiles = /* write "global" (=not per tile) files */
(PID.TID 0000.0001)                   F
(PID.TID 0000.0001)     ;
(PID.TID 0000.0001)  useSingleCpuIO = /* only master MPI process does I/O */
(PID.TID 0000.0001)                   T
(PID.TID 0000.0001)     ;
(PID.TID 0000.0001)  useSingleCpuInput = /* only master process reads input */
(PID.TID 0000.0001)                   T
(PID.TID 0000.0001)     ;
(PID.TID 0000.0001) /* debLev[*]  : level of debug & auxiliary message printing */
(PID.TID 0000.0001) debLevZero =  0 ; /* level of disabled aux. msg printing */
(PID.TID 0000.0001)    debLevA =  1 ; /* level of minimum  aux. msg printing */
(PID.TID 0000.0001)    debLevB =  2 ; /* level of low aux. print (report read-file opening)*/
(PID.TID 0000.0001)    debLevC =  3 ; /* level of moderate debug prt (most pkgs debug msg) */
(PID.TID 0000.0001)    debLevD =  4 ; /* level of enhanced debug prt (add DEBUG_STATS prt) */
(PID.TID 0000.0001)    debLevE =  5 ; /* level of extensive debug printing */
(PID.TID 0000.0001) debugLevel =  /* select debug printing level */
(PID.TID 0000.0001)                       2
(PID.TID 0000.0001)     ;
(PID.TID 0000.0001)  plotLevel =  /* select PLOT_FIELD printing level */
(PID.TID 0000.0001)                       2
(PID.TID 0000.0001)     ;
(PID.TID 0000.0001) //
(PID.TID 0000.0001) // Elliptic solver(s) paramters ( PARM02 in namelist )
(PID.TID 0000.0001) //
(PID.TID 0000.0001) cg2dMaxIters =   /* Upper limit on 2d con. grad iterations  */
(PID.TID 0000.0001)                     200
(PID.TID 0000.0001)     ;
(PID.TID 0000.0001) cg2dMinItersNSA =   /* Minimum number of iterations of 2d con. grad solver  */
(PID.TID 0000.0001)                       0
(PID.TID 0000.0001)     ;
(PID.TID 0000.0001) cg2dUseMinResSol= /* use cg2d last-iter(=0) / min-resid.(=1) solution */
(PID.TID 0000.0001)                       0
(PID.TID 0000.0001)     ;
(PID.TID 0000.0001) cg2dTargetResidual =   /* 2d con. grad target residual  */
(PID.TID 0000.0001)                 1.000000000000000E-09
(PID.TID 0000.0001)     ;
(PID.TID 0000.0001) cg2dTargetResWunit =   /* CG2d target residual [W units] */
(PID.TID 0000.0001)                -1.000000000000000E+00
(PID.TID 0000.0001)     ;
(PID.TID 0000.0001) cg2dPreCondFreq =   /* Freq. for updating cg2d preconditioner */
(PID.TID 0000.0001)                       1
(PID.TID 0000.0001)     ;
(PID.TID 0000.0001) useSRCGSolver =  /* use single reduction CG solver(s) */
(PID.TID 0000.0001)                   F
(PID.TID 0000.0001)     ;
(PID.TID 0000.0001) useNSACGSolver =  /* use not-self-adjoint CG solver */
(PID.TID 0000.0001)                   F
(PID.TID 0000.0001)     ;
(PID.TID 0000.0001) printResidualFreq = /* Freq. for printing CG residual */
(PID.TID 0000.0001)                       0
(PID.TID 0000.0001)     ;
(PID.TID 0000.0001) //
(PID.TID 0000.0001) // Time stepping paramters ( PARM03 in namelist )
(PID.TID 0000.0001) //
(PID.TID 0000.0001) deltaTMom =   /* Momentum equation timestep ( s ) */
(PID.TID 0000.0001)                 3.600000000000000E+03
(PID.TID 0000.0001)     ;
(PID.TID 0000.0001) deltaTFreeSurf = /* FreeSurface equation timestep ( s ) */
(PID.TID 0000.0001)                 3.600000000000000E+03
(PID.TID 0000.0001)     ;
(PID.TID 0000.0001) dTtracerLev =  /* Tracer equation timestep ( s ) */
(PID.TID 0000.0001)    15 @  3.600000000000000E+03              /* K =  1: 15 */
(PID.TID 0000.0001)     ;
(PID.TID 0000.0001) deltaTClock  =   /* Model clock timestep ( s ) */
(PID.TID 0000.0001)                 3.600000000000000E+03
(PID.TID 0000.0001)     ;
(PID.TID 0000.0001) cAdjFreq =   /* Convective adjustment interval ( s ) */
(PID.TID 0000.0001)                 0.000000000000000E+00
(PID.TID 0000.0001)     ;
(PID.TID 0000.0001) momForcingOutAB = /* =1: take Momentum Forcing out of Adams-Bash. stepping */
(PID.TID 0000.0001)                       1
(PID.TID 0000.0001)     ;
(PID.TID 0000.0001) tracForcingOutAB = /* =1: take T,S,pTr Forcing out of Adams-Bash. stepping */
(PID.TID 0000.0001)                       1
(PID.TID 0000.0001)     ;
(PID.TID 0000.0001) momDissip_In_AB = /* put Dissipation Tendency in Adams-Bash. stepping */
(PID.TID 0000.0001)                   F
(PID.TID 0000.0001)     ;
(PID.TID 0000.0001) doAB_onGtGs = /* apply AB on Tendencies (rather than on T,S)*/
(PID.TID 0000.0001)                   F
(PID.TID 0000.0001)     ;
(PID.TID 0000.0001) abEps =   /* Adams-Bashforth-2 stabilizing weight */
(PID.TID 0000.0001)                 1.000000000000000E-02
(PID.TID 0000.0001)     ;
(PID.TID 0000.0001) alph_AB =   /* Adams-Bashforth-3 primary factor */
(PID.TID 0000.0001)                 5.000000000000000E-01
(PID.TID 0000.0001)     ;
(PID.TID 0000.0001) beta_AB =   /* Adams-Bashforth-3 secondary factor */
(PID.TID 0000.0001)                 2.811050000000000E-01
(PID.TID 0000.0001)     ;
(PID.TID 0000.0001) startFromPickupAB2= /* start from AB-2 pickup */
(PID.TID 0000.0001)                   F
(PID.TID 0000.0001)     ;
(PID.TID 0000.0001) applyExchUV_early = /* Apply EXCH to U,V earlier in time-step */
(PID.TID 0000.0001)                   F
(PID.TID 0000.0001)     ;
(PID.TID 0000.0001) pickupStrictlyMatch= /* stop if pickup do not strictly match */
(PID.TID 0000.0001)                   T
(PID.TID 0000.0001)     ;
(PID.TID 0000.0001) nIter0   =   /* Run starting timestep number */
(PID.TID 0000.0001)               185414400
(PID.TID 0000.0001)     ;
(PID.TID 0000.0001) nTimeSteps = /* Number of timesteps */
(PID.TID 0000.0001)                      10
(PID.TID 0000.0001)     ;
(PID.TID 0000.0001) nEndIter =   /* Run ending timestep number */
(PID.TID 0000.0001)               185414410
(PID.TID 0000.0001)     ;
(PID.TID 0000.0001) baseTime =   /* Model base time ( s ) */
(PID.TID 0000.0001)                 0.000000000000000E+00
(PID.TID 0000.0001)     ;
(PID.TID 0000.0001) startTime =  /* Run start time ( s ) */
(PID.TID 0000.0001)                 6.674918400000000E+11
(PID.TID 0000.0001)     ;
(PID.TID 0000.0001) endTime  =   /* Integration ending time ( s ) */
(PID.TID 0000.0001)                 6.674918760000000E+11
(PID.TID 0000.0001)     ;
(PID.TID 0000.0001) pChkPtFreq = /* Permanent restart/pickup file interval ( s ) */
(PID.TID 0000.0001)                 2.592000000000000E+06
(PID.TID 0000.0001)     ;
(PID.TID 0000.0001) chkPtFreq  = /* Rolling restart/pickup file interval ( s ) */
(PID.TID 0000.0001)                 0.000000000000000E+00
(PID.TID 0000.0001)     ;
(PID.TID 0000.0001) pickup_write_mdsio =   /* Model IO flag. */
(PID.TID 0000.0001)                   T
(PID.TID 0000.0001)     ;
(PID.TID 0000.0001) pickup_read_mdsio =   /* Model IO flag. */
(PID.TID 0000.0001)                   T
(PID.TID 0000.0001)     ;
(PID.TID 0000.0001) writePickupAtEnd =   /* Model IO flag. */
(PID.TID 0000.0001)                   T
(PID.TID 0000.0001)     ;
(PID.TID 0000.0001) dumpFreq =   /* Model state write out interval ( s ). */
(PID.TID 0000.0001)                 0.000000000000000E+00
(PID.TID 0000.0001)     ;
(PID.TID 0000.0001) dumpInitAndLast= /* write out Initial & Last iter. model state */
(PID.TID 0000.0001)                   T
(PID.TID 0000.0001)     ;
(PID.TID 0000.0001) snapshot_mdsio =   /* Model IO flag. */
(PID.TID 0000.0001)                   T
(PID.TID 0000.0001)     ;
(PID.TID 0000.0001) monitorFreq =   /* Monitor output interval ( s ). */
(PID.TID 0000.0001)                 3.600000000000000E+03
(PID.TID 0000.0001)     ;
(PID.TID 0000.0001) monitorSelect = /* select group of variables to monitor */
(PID.TID 0000.0001)                       3
(PID.TID 0000.0001)     ;
(PID.TID 0000.0001) monitor_stdio =   /* Model IO flag. */
(PID.TID 0000.0001)                   T
(PID.TID 0000.0001)     ;
(PID.TID 0000.0001) externForcingPeriod =   /* forcing period (s) */
(PID.TID 0000.0001)                 2.592000000000000E+06
(PID.TID 0000.0001)     ;
(PID.TID 0000.0001) externForcingCycle =   /* period of the cyle (s). */
(PID.TID 0000.0001)                 3.110400000000000E+07
(PID.TID 0000.0001)     ;
(PID.TID 0000.0001) tauThetaClimRelax =   /* relaxation time scale (s) */
(PID.TID 0000.0001)                 0.000000000000000E+00
(PID.TID 0000.0001)     ;
(PID.TID 0000.0001) tauSaltClimRelax =   /* relaxation time scale (s) */
(PID.TID 0000.0001)                 0.000000000000000E+00
(PID.TID 0000.0001)     ;
(PID.TID 0000.0001) latBandClimRelax =   /* max. Lat. where relaxation */
(PID.TID 0000.0001)                 1.800000000000000E+02
(PID.TID 0000.0001)     ;
(PID.TID 0000.0001) //
(PID.TID 0000.0001) // Gridding paramters ( PARM04 in namelist )
(PID.TID 0000.0001) //
(PID.TID 0000.0001) usingCartesianGrid = /* Cartesian coordinates flag ( True/False ) */
(PID.TID 0000.0001)                   F
(PID.TID 0000.0001)     ;
(PID.TID 0000.0001) usingCylindricalGrid = /* Cylindrical coordinates flag ( True/False ) */
(PID.TID 0000.0001)                   F
(PID.TID 0000.0001)     ;
(PID.TID 0000.0001) usingSphericalPolarGrid = /* Spherical coordinates flag ( True/False ) */
(PID.TID 0000.0001)                   F
(PID.TID 0000.0001)     ;
(PID.TID 0000.0001) usingCurvilinearGrid = /* Curvilinear coordinates flag ( True/False ) */
(PID.TID 0000.0001)                   T
(PID.TID 0000.0001)     ;
(PID.TID 0000.0001) useMin4hFacEdges = /* set hFacW,S as minimum of adjacent hFacC factor */
(PID.TID 0000.0001)                   F
(PID.TID 0000.0001)     ;
(PID.TID 0000.0001) interViscAr_pCell = /* account for partial-cell in interior vert. viscosity */
(PID.TID 0000.0001)                   F
(PID.TID 0000.0001)     ;
(PID.TID 0000.0001) interDiffKr_pCell = /* account for partial-cell in interior vert. diffusion */
(PID.TID 0000.0001)                   F
(PID.TID 0000.0001)     ;
(PID.TID 0000.0001) pCellMix_select = /* option to enhance mixing near surface & bottom */
(PID.TID 0000.0001)                       0
(PID.TID 0000.0001)     ;
(PID.TID 0000.0001) selectSigmaCoord = /* Hybrid-Sigma Vert. Coordinate option */
(PID.TID 0000.0001)                       0
(PID.TID 0000.0001)     ;
(PID.TID 0000.0001) rSigmaBnd = /* r/sigma transition ( units of r ==  m ) */
(PID.TID 0000.0001)                 1.234567000000000E+05
(PID.TID 0000.0001)     ;
(PID.TID 0000.0001) rkSign =   /* index orientation relative to vertical coordinate */
(PID.TID 0000.0001)                -1.000000000000000E+00
(PID.TID 0000.0001)     ;
(PID.TID 0000.0001) gravitySign = /* gravity orientation relative to vertical coordinate */
(PID.TID 0000.0001)                -1.000000000000000E+00
(PID.TID 0000.0001)     ;
(PID.TID 0000.0001) seaLev_Z =  /* reference height of sea-level [m] */
(PID.TID 0000.0001)                 0.000000000000000E+00
(PID.TID 0000.0001)     ;
(PID.TID 0000.0001) top_Pres =  /* reference pressure at the top [Pa] */
(PID.TID 0000.0001)                 0.000000000000000E+00
(PID.TID 0000.0001)     ;
(PID.TID 0000.0001) mass2rUnit = /* convert mass per unit area [kg/m2] to r-units [m] */
(PID.TID 0000.0001)                 9.708737864077669E-04
(PID.TID 0000.0001)     ;
(PID.TID 0000.0001) rUnit2mass = /* convert r-units [m] to mass per unit area [kg/m2] */
(PID.TID 0000.0001)                 1.030000000000000E+03
(PID.TID 0000.0001)     ;
(PID.TID 0000.0001) drC =   /* C spacing ( units of r ) */
(PID.TID 0000.0001)                 1.500000000000000E+01,      /* K =  1 */
(PID.TID 0000.0001)                 3.500000000000000E+01,      /* K =  2 */
(PID.TID 0000.0001)                 5.000000000000000E+01,      /* K =  3 */
(PID.TID 0000.0001)                 7.000000000000000E+01,      /* K =  4 */
(PID.TID 0000.0001)                 9.500000000000000E+01,      /* K =  5 */
(PID.TID 0000.0001)                 1.250000000000000E+02,      /* K =  6 */
(PID.TID 0000.0001)                 1.500000000000000E+02,      /* K =  7 */
(PID.TID 0000.0001)                 1.800000000000000E+02,      /* K =  8 */
(PID.TID 0000.0001)                 2.100000000000000E+02,      /* K =  9 */
(PID.TID 0000.0001)                 2.400000000000000E+02,      /* K = 10 */
(PID.TID 0000.0001)                 2.700000000000000E+02,      /* K = 11 */
(PID.TID 0000.0001)                 2.950000000000000E+02,      /* K = 12 */
(PID.TID 0000.0001)                 3.250000000000000E+02,      /* K = 13 */
(PID.TID 0000.0001)                 3.550000000000000E+02,      /* K = 14 */
(PID.TID 0000.0001)                 3.850000000000000E+02,      /* K = 15 */
(PID.TID 0000.0001)                 2.000000000000000E+02       /* K = 16 */
(PID.TID 0000.0001)     ;
(PID.TID 0000.0001) drF =   /* W spacing ( units of r ) */
(PID.TID 0000.0001)                 3.000000000000000E+01,      /* K =  1 */
(PID.TID 0000.0001)                 4.000000000000000E+01,      /* K =  2 */
(PID.TID 0000.0001)                 6.000000000000000E+01,      /* K =  3 */
(PID.TID 0000.0001)                 8.000000000000000E+01,      /* K =  4 */
(PID.TID 0000.0001)                 1.100000000000000E+02,      /* K =  5 */
(PID.TID 0000.0001)                 1.400000000000000E+02,      /* K =  6 */
(PID.TID 0000.0001)                 1.600000000000000E+02,      /* K =  7 */
(PID.TID 0000.0001)                 2.000000000000000E+02,      /* K =  8 */
(PID.TID 0000.0001)                 2.200000000000000E+02,      /* K =  9 */
(PID.TID 0000.0001)                 2.600000000000000E+02,      /* K = 10 */
(PID.TID 0000.0001)                 2.800000000000000E+02,      /* K = 11 */
(PID.TID 0000.0001)                 3.100000000000000E+02,      /* K = 12 */
(PID.TID 0000.0001)                 3.400000000000000E+02,      /* K = 13 */
(PID.TID 0000.0001)                 3.700000000000000E+02,      /* K = 14 */
(PID.TID 0000.0001)                 4.000000000000000E+02       /* K = 15 */
(PID.TID 0000.0001)     ;
(PID.TID 0000.0001) radius_fromHorizGrid = /* sphere Radius of input horiz. grid */
(PID.TID 0000.0001)                 6.370000000000000E+06
(PID.TID 0000.0001)     ;
(PID.TID 0000.0001) rSphere =  /* Radius ( ignored - cartesian, m - spherical ) */
(PID.TID 0000.0001)                 6.370000000000000E+06
(PID.TID 0000.0001)     ;
(PID.TID 0000.0001) deepAtmosphere = /* Deep/Shallow Atmosphere flag (True/False) */
(PID.TID 0000.0001)                   F
(PID.TID 0000.0001)     ;
(PID.TID 0000.0001) xC =  /* xC(:,1,:,1) : P-point X coord ( deg. or m if cartesian) */
(PID.TID 0000.0001)                -4.415389158859421E+01,      /* I =  1 */
(PID.TID 0000.0001)                -4.202321172190459E+01,      /* I =  2 */
(PID.TID 0000.0001)                -3.945220079733920E+01,      /* I =  3 */
(PID.TID 0000.0001)      . . .
(PID.TID 0000.0001)                 7.776431607819690E+01,      /* I = 34 */
(PID.TID 0000.0001)                 8.259380615606662E+01,      /* I = 35 */
(PID.TID 0000.0001)                 8.752027366591116E+01,      /* I = 36 */
(PID.TID 0000.0001)                 9.247972633408888E+01,      /* I = 37 */
(PID.TID 0000.0001)                 9.740619384393338E+01,      /* I = 38 */
(PID.TID 0000.0001)                 1.022356839218031E+02,      /* I = 39 */
(PID.TID 0000.0001)      . . .
(PID.TID 0000.0001)                 1.308285786920739E+02,      /* I = 70 */
(PID.TID 0000.0001)                 1.332231181571574E+02,      /* I = 71 */
(PID.TID 0000.0001)                 1.350000000000000E+02,      /* I = 72 */
(PID.TID 0000.0001)                 1.358461084114058E+02,      /* I = 73 */
(PID.TID 0000.0001)                 1.362037829590149E+02,      /* I = 74 */
(PID.TID 0000.0001)                 1.363960102586107E+02,      /* I = 75 */
(PID.TID 0000.0001)      . . .
(PID.TID 0000.0001)                -1.332094593843833E+02,      /* I =106 */
(PID.TID 0000.0001)                -1.331989093894726E+02,      /* I =107 */
(PID.TID 0000.0001)                -1.331938734757489E+02,      /* I =108 */
(PID.TID 0000.0001)                -1.331938734757489E+02,      /* I =109 */
(PID.TID 0000.0001)                -1.331989093894725E+02,      /* I =110 */
(PID.TID 0000.0001)                -1.332094593843833E+02,      /* I =111 */
(PID.TID 0000.0001)      . . .
(PID.TID 0000.0001)                 1.391714213079261E+02,      /* I =142 */
(PID.TID 0000.0001)                 1.367768818428426E+02,      /* I =143 */
(PID.TID 0000.0001)                 1.350000000000000E+02       /* I =144 */
(PID.TID 0000.0001)     ;
(PID.TID 0000.0001) yC =  /* yC(1,:,1,:) : P-point Y coord ( deg. or m if cartesian) */
(PID.TID 0000.0001)                -3.486060428076416E+01,      /* J =  1 */
(PID.TID 0000.0001)                -3.304185448565009E+01,      /* J =  2 */
(PID.TID 0000.0001)                -3.079104037309188E+01,      /* J =  3 */
(PID.TID 0000.0001)                -2.822681662567213E+01,      /* J =  4 */
(PID.TID 0000.0001)                -2.541691746052549E+01,      /* J =  5 */
(PID.TID 0000.0001)                -2.240593168551424E+01,      /* J =  6 */
(PID.TID 0000.0001)                -1.922840671896352E+01,      /* J =  7 */
(PID.TID 0000.0001)                -1.591437511670302E+01,      /* J =  8 */
(PID.TID 0000.0001)                -1.249038227468350E+01,      /* J =  9 */
(PID.TID 0000.0001)                -8.981829992864316E+00,      /* J = 10 */
(PID.TID 0000.0001)                -5.413088921775463E+00,      /* J = 11 */
(PID.TID 0000.0001)                -1.808353097728801E+00,      /* J = 12 */
(PID.TID 0000.0001)                 1.808353097728819E+00,      /* J = 13 */
(PID.TID 0000.0001)                 5.413088921775473E+00,      /* J = 14 */
(PID.TID 0000.0001)                 8.981829992864329E+00,      /* J = 15 */
(PID.TID 0000.0001)                 1.249038227468350E+01,      /* J = 16 */
(PID.TID 0000.0001)                 1.591437511670303E+01,      /* J = 17 */
(PID.TID 0000.0001)                 1.922840671896353E+01,      /* J = 18 */
(PID.TID 0000.0001)                 2.240593168551424E+01,      /* J = 19 */
(PID.TID 0000.0001)                 2.541691746052550E+01,      /* J = 20 */
(PID.TID 0000.0001)                 2.822681662567215E+01,      /* J = 21 */
(PID.TID 0000.0001)                 3.079104037309189E+01,      /* J = 22 */
(PID.TID 0000.0001)                 3.304185448565009E+01,      /* J = 23 */
(PID.TID 0000.0001)                 3.486060428076415E+01       /* J = 24 */
(PID.TID 0000.0001)     ;
(PID.TID 0000.0001) rcoord = /* P-point R coordinate (  units of r ) */
(PID.TID 0000.0001)                -1.500000000000000E+01,      /* K =  1 */
(PID.TID 0000.0001)                -5.000000000000000E+01,      /* K =  2 */
(PID.TID 0000.0001)                -1.000000000000000E+02,      /* K =  3 */
(PID.TID 0000.0001)                -1.700000000000000E+02,      /* K =  4 */
(PID.TID 0000.0001)                -2.650000000000000E+02,      /* K =  5 */
(PID.TID 0000.0001)                -3.900000000000000E+02,      /* K =  6 */
(PID.TID 0000.0001)                -5.400000000000000E+02,      /* K =  7 */
(PID.TID 0000.0001)                -7.200000000000000E+02,      /* K =  8 */
(PID.TID 0000.0001)                -9.300000000000000E+02,      /* K =  9 */
(PID.TID 0000.0001)                -1.170000000000000E+03,      /* K = 10 */
(PID.TID 0000.0001)                -1.440000000000000E+03,      /* K = 11 */
(PID.TID 0000.0001)                -1.735000000000000E+03,      /* K = 12 */
(PID.TID 0000.0001)                -2.060000000000000E+03,      /* K = 13 */
(PID.TID 0000.0001)                -2.415000000000000E+03,      /* K = 14 */
(PID.TID 0000.0001)                -2.800000000000000E+03       /* K = 15 */
(PID.TID 0000.0001)     ;
(PID.TID 0000.0001) rF =   /* W-Interf. R coordinate (  units of r ) */
(PID.TID 0000.0001)                 0.000000000000000E+00,      /* K =  1 */
(PID.TID 0000.0001)                -3.000000000000000E+01,      /* K =  2 */
(PID.TID 0000.0001)                -7.000000000000000E+01,      /* K =  3 */
(PID.TID 0000.0001)                -1.300000000000000E+02,      /* K =  4 */
(PID.TID 0000.0001)                -2.100000000000000E+02,      /* K =  5 */
(PID.TID 0000.0001)                -3.200000000000000E+02,      /* K =  6 */
(PID.TID 0000.0001)                -4.600000000000000E+02,      /* K =  7 */
(PID.TID 0000.0001)                -6.200000000000000E+02,      /* K =  8 */
(PID.TID 0000.0001)                -8.200000000000000E+02,      /* K =  9 */
(PID.TID 0000.0001)                -1.040000000000000E+03,      /* K = 10 */
(PID.TID 0000.0001)                -1.300000000000000E+03,      /* K = 11 */
(PID.TID 0000.0001)                -1.580000000000000E+03,      /* K = 12 */
(PID.TID 0000.0001)                -1.890000000000000E+03,      /* K = 13 */
(PID.TID 0000.0001)                -2.230000000000000E+03,      /* K = 14 */
(PID.TID 0000.0001)                -2.600000000000000E+03,      /* K = 15 */
(PID.TID 0000.0001)                -3.000000000000000E+03       /* K = 16 */
(PID.TID 0000.0001)     ;
(PID.TID 0000.0001) deepFacC = /* deep-model grid factor @ cell-Center (-) */
(PID.TID 0000.0001)    15 @  1.000000000000000E+00              /* K =  1: 15 */
(PID.TID 0000.0001)     ;
(PID.TID 0000.0001) deepFacF = /* deep-model grid factor @ W-Interface (-) */
(PID.TID 0000.0001)    16 @  1.000000000000000E+00              /* K =  1: 16 */
(PID.TID 0000.0001)     ;
(PID.TID 0000.0001) rVel2wUnit = /* convert units: rVel -> wSpeed (=1 if z-coord)*/
(PID.TID 0000.0001)    16 @  1.000000000000000E+00              /* K =  1: 16 */
(PID.TID 0000.0001)     ;
(PID.TID 0000.0001) wUnit2rVel = /* convert units: wSpeed -> rVel (=1 if z-coord)*/
(PID.TID 0000.0001)    16 @  1.000000000000000E+00              /* K =  1: 16 */
(PID.TID 0000.0001)     ;
(PID.TID 0000.0001) dBdrRef = /* Vertical grad. of reference buoyancy [(m/s/r)^2] */
(PID.TID 0000.0001)                 0.000000000000000E+00,      /* K =  1 */
(PID.TID 0000.0001)                 1.513658173824347E-04,      /* K =  2 */
(PID.TID 0000.0001)                 1.994704886788648E-05,      /* K =  3 */
(PID.TID 0000.0001)                 1.400785964683230E-05,      /* K =  4 */
(PID.TID 0000.0001)                 2.008920192839131E-05,      /* K =  5 */
(PID.TID 0000.0001)                 2.866958487138032E-05,      /* K =  6 */
(PID.TID 0000.0001)                 3.447309595983847E-05,      /* K =  7 */
(PID.TID 0000.0001)                 1.948771831603495E-05,      /* K =  8 */
(PID.TID 0000.0001)                 9.490438495826930E-06,      /* K =  9 */
(PID.TID 0000.0001)                 4.988096420334732E-06,      /* K = 10 */
(PID.TID 0000.0001)                 2.828412561660375E-06,      /* K = 11 */
(PID.TID 0000.0001)                 1.623765356398361E-06,      /* K = 12 */
(PID.TID 0000.0001)                 1.223072730929922E-06,      /* K = 13 */
(PID.TID 0000.0001)                 1.176961961535596E-06,      /* K = 14 */
(PID.TID 0000.0001)                 8.651032583479265E-07       /* K = 15 */
(PID.TID 0000.0001)     ;
(PID.TID 0000.0001) rotateGrid = /* use rotated grid ( True/False ) */
(PID.TID 0000.0001)                   F
(PID.TID 0000.0001)     ;
(PID.TID 0000.0001) phiEuler = /* Euler angle, rotation about original z-coordinate [rad] */
(PID.TID 0000.0001)                 0.000000000000000E+00
(PID.TID 0000.0001)     ;
(PID.TID 0000.0001) thetaEuler = /* Euler angle, rotation about new x-coordinate [rad] */
(PID.TID 0000.0001)                 0.000000000000000E+00
(PID.TID 0000.0001)     ;
(PID.TID 0000.0001) psiEuler = /* Euler angle, rotation about new z-coordinate [rad] */
(PID.TID 0000.0001)                 0.000000000000000E+00
(PID.TID 0000.0001)     ;
(PID.TID 0000.0001) dxF =  /* dxF(:,1,:,1) ( units: m ) */
(PID.TID 0000.0001)                 1.730605259403662E+05,      /* I =  1 */
(PID.TID 0000.0001)                 2.305559745418336E+05,      /* I =  2 */
(PID.TID 0000.0001)                 2.689553525596760E+05,      /* I =  3 */
(PID.TID 0000.0001)      . . .
(PID.TID 0000.0001)                 3.937715164123765E+05,      /* I = 34 */
(PID.TID 0000.0001)                 3.990925544639163E+05,      /* I = 35 */
(PID.TID 0000.0001)                 4.017674622183833E+05,      /* I = 36 */
(PID.TID 0000.0001)                 4.017674622183833E+05,      /* I = 37 */
(PID.TID 0000.0001)                 3.990925544639162E+05,      /* I = 38 */
(PID.TID 0000.0001)                 3.937715164123765E+05,      /* I = 39 */
(PID.TID 0000.0001)      . . .
(PID.TID 0000.0001)                 2.689553525596760E+05,      /* I = 70 */
(PID.TID 0000.0001)                 2.305559745418336E+05,      /* I = 71 */
(PID.TID 0000.0001)                 1.730605259403663E+05,      /* I = 72 */
(PID.TID 0000.0001)                 1.730605259403662E+05,      /* I = 73 */
(PID.TID 0000.0001)                 2.305559745418336E+05,      /* I = 74 */
(PID.TID 0000.0001)                 2.689553525596760E+05,      /* I = 75 */
(PID.TID 0000.0001)      . . .
(PID.TID 0000.0001)                 3.937715164123765E+05,      /* I =106 */
(PID.TID 0000.0001)                 3.990925544639163E+05,      /* I =107 */
(PID.TID 0000.0001)                 4.017674622183833E+05,      /* I =108 */
(PID.TID 0000.0001)                 4.017674622183833E+05,      /* I =109 */
(PID.TID 0000.0001)                 3.990925544639162E+05,      /* I =110 */
(PID.TID 0000.0001)                 3.937715164123765E+05,      /* I =111 */
(PID.TID 0000.0001)      . . .
(PID.TID 0000.0001)                 2.689553525596760E+05,      /* I =142 */
(PID.TID 0000.0001)                 2.305559745418336E+05,      /* I =143 */
(PID.TID 0000.0001)                 1.730605259403663E+05       /* I =144 */
(PID.TID 0000.0001)     ;
(PID.TID 0000.0001) dxF =  /* dxF(1,:,1,:) ( units: m ) */
(PID.TID 0000.0001)                 1.730605259403662E+05,      /* J =  1 */
(PID.TID 0000.0001)                 2.290253111905513E+05,      /* J =  2 */
(PID.TID 0000.0001)                 2.685885976308528E+05,      /* J =  3 */
(PID.TID 0000.0001)                 2.989312700707331E+05,      /* J =  4 */
(PID.TID 0000.0001)                 3.234923273214143E+05,      /* J =  5 */
(PID.TID 0000.0001)                 3.437877062918490E+05,      /* J =  6 */
(PID.TID 0000.0001)                 3.606698694876578E+05,      /* J =  7 */
(PID.TID 0000.0001)                 3.744366791307096E+05,      /* J =  8 */
(PID.TID 0000.0001)                 3.853383613351046E+05,      /* J =  9 */
(PID.TID 0000.0001)                 3.934701174572747E+05,      /* J = 10 */
(PID.TID 0000.0001)                 3.988465719120836E+05,      /* J = 11 */
(PID.TID 0000.0001)     2 @  4.015742495207468E+05,             /* J = 12: 13 */
(PID.TID 0000.0001)                 3.988465719120835E+05,      /* J = 14 */
(PID.TID 0000.0001)                 3.934701174572747E+05,      /* J = 15 */
(PID.TID 0000.0001)                 3.853383613351046E+05,      /* J = 16 */
(PID.TID 0000.0001)                 3.744366791307096E+05,      /* J = 17 */
(PID.TID 0000.0001)                 3.606698694876578E+05,      /* J = 18 */
(PID.TID 0000.0001)                 3.437877062918490E+05,      /* J = 19 */
(PID.TID 0000.0001)                 3.234923273214143E+05,      /* J = 20 */
(PID.TID 0000.0001)                 2.989312700707331E+05,      /* J = 21 */
(PID.TID 0000.0001)                 2.685885976308528E+05,      /* J = 22 */
(PID.TID 0000.0001)                 2.290253111905513E+05,      /* J = 23 */
(PID.TID 0000.0001)                 1.730605259403663E+05       /* J = 24 */
(PID.TID 0000.0001)     ;
(PID.TID 0000.0001) dyF =  /* dyF(:,1,:,1) ( units: m ) */
(PID.TID 0000.0001)                 1.730605259403662E+05,      /* I =  1 */
(PID.TID 0000.0001)                 2.290253111905513E+05,      /* I =  2 */
(PID.TID 0000.0001)                 2.685885976308528E+05,      /* I =  3 */
(PID.TID 0000.0001)      . . .
(PID.TID 0000.0001)                 3.934701174572747E+05,      /* I = 34 */
(PID.TID 0000.0001)                 3.988465719120836E+05,      /* I = 35 */
(PID.TID 0000.0001)                 4.015742495207468E+05,      /* I = 36 */
(PID.TID 0000.0001)                 4.015742495207468E+05,      /* I = 37 */
(PID.TID 0000.0001)                 3.988465719120835E+05,      /* I = 38 */
(PID.TID 0000.0001)                 3.934701174572747E+05,      /* I = 39 */
(PID.TID 0000.0001)      . . .
(PID.TID 0000.0001)                 2.685885976308528E+05,      /* I = 70 */
(PID.TID 0000.0001)                 2.290253111905513E+05,      /* I = 71 */
(PID.TID 0000.0001)                 1.730605259403663E+05,      /* I = 72 */
(PID.TID 0000.0001)                 1.730605259403662E+05,      /* I = 73 */
(PID.TID 0000.0001)                 2.290253111905513E+05,      /* I = 74 */
(PID.TID 0000.0001)                 2.685885976308528E+05,      /* I = 75 */
(PID.TID 0000.0001)      . . .
(PID.TID 0000.0001)                 3.934701174572747E+05,      /* I =106 */
(PID.TID 0000.0001)                 3.988465719120836E+05,      /* I =107 */
(PID.TID 0000.0001)                 4.015742495207468E+05,      /* I =108 */
(PID.TID 0000.0001)                 4.015742495207468E+05,      /* I =109 */
(PID.TID 0000.0001)                 3.988465719120835E+05,      /* I =110 */
(PID.TID 0000.0001)                 3.934701174572747E+05,      /* I =111 */
(PID.TID 0000.0001)      . . .
(PID.TID 0000.0001)                 2.685885976308528E+05,      /* I =142 */
(PID.TID 0000.0001)                 2.290253111905513E+05,      /* I =143 */
(PID.TID 0000.0001)                 1.730605259403663E+05       /* I =144 */
(PID.TID 0000.0001)     ;
(PID.TID 0000.0001) dyF =  /* dyF(1,:,1,:) ( units: m ) */
(PID.TID 0000.0001)                 1.730605259403662E+05,      /* J =  1 */
(PID.TID 0000.0001)                 2.305559745418336E+05,      /* J =  2 */
(PID.TID 0000.0001)                 2.689553525596760E+05,      /* J =  3 */
(PID.TID 0000.0001)                 2.996512796679714E+05,      /* J =  4 */
(PID.TID 0000.0001)                 3.242083370328164E+05,      /* J =  5 */
(PID.TID 0000.0001)                 3.444586831238133E+05,      /* J =  6 */
(PID.TID 0000.0001)                 3.612859484180047E+05,      /* J =  7 */
(PID.TID 0000.0001)                 3.749303256564948E+05,      /* J =  8 */
(PID.TID 0000.0001)                 3.857244203555482E+05,      /* J =  9 */
(PID.TID 0000.0001)                 3.937715164123765E+05,      /* J = 10 */
(PID.TID 0000.0001)                 3.990925544639163E+05,      /* J = 11 */
(PID.TID 0000.0001)     2 @  4.017674622183833E+05,             /* J = 12: 13 */
(PID.TID 0000.0001)                 3.990925544639162E+05,      /* J = 14 */
(PID.TID 0000.0001)                 3.937715164123765E+05,      /* J = 15 */
(PID.TID 0000.0001)                 3.857244203555482E+05,      /* J = 16 */
(PID.TID 0000.0001)                 3.749303256564948E+05,      /* J = 17 */
(PID.TID 0000.0001)                 3.612859484180047E+05,      /* J = 18 */
(PID.TID 0000.0001)                 3.444586831238133E+05,      /* J = 19 */
(PID.TID 0000.0001)                 3.242083370328164E+05,      /* J = 20 */
(PID.TID 0000.0001)                 2.996512796679714E+05,      /* J = 21 */
(PID.TID 0000.0001)                 2.689553525596760E+05,      /* J = 22 */
(PID.TID 0000.0001)                 2.305559745418336E+05,      /* J = 23 */
(PID.TID 0000.0001)                 1.730605259403663E+05       /* J = 24 */
(PID.TID 0000.0001)     ;
(PID.TID 0000.0001) dxG =  /* dxG(:,1,:,1) ( units: m ) */
(PID.TID 0000.0001)                 1.451825473793826E+05,      /* I =  1 */
(PID.TID 0000.0001)                 2.263713942765605E+05,      /* I =  2 */
(PID.TID 0000.0001)                 2.677552712127340E+05,      /* I =  3 */
(PID.TID 0000.0001)      . . .
(PID.TID 0000.0001)                 3.934567971173259E+05,      /* I = 34 */
(PID.TID 0000.0001)                 3.988026331294687E+05,      /* I = 35 */
(PID.TID 0000.0001)                 4.014680116057578E+05,      /* I = 36 */
(PID.TID 0000.0001)                 4.014680116057578E+05,      /* I = 37 */
(PID.TID 0000.0001)                 3.988026331294686E+05,      /* I = 38 */
(PID.TID 0000.0001)                 3.934567971173259E+05,      /* I = 39 */
(PID.TID 0000.0001)      . . .
(PID.TID 0000.0001)                 2.677552712127340E+05,      /* I = 70 */
(PID.TID 0000.0001)                 2.263713942765605E+05,      /* I = 71 */
(PID.TID 0000.0001)                 1.451825473793826E+05,      /* I = 72 */
(PID.TID 0000.0001)                 1.451825473793826E+05,      /* I = 73 */
(PID.TID 0000.0001)                 2.263713942765605E+05,      /* I = 74 */
(PID.TID 0000.0001)                 2.677552712127340E+05,      /* I = 75 */
(PID.TID 0000.0001)      . . .
(PID.TID 0000.0001)                 3.934567971173259E+05,      /* I =106 */
(PID.TID 0000.0001)                 3.988026331294687E+05,      /* I =107 */
(PID.TID 0000.0001)                 4.014680116057578E+05,      /* I =108 */
(PID.TID 0000.0001)                 4.014680116057578E+05,      /* I =109 */
(PID.TID 0000.0001)                 3.988026331294686E+05,      /* I =110 */
(PID.TID 0000.0001)                 3.934567971173259E+05,      /* I =111 */
(PID.TID 0000.0001)      . . .
(PID.TID 0000.0001)                 2.677552712127340E+05,      /* I =142 */
(PID.TID 0000.0001)                 2.263713942765605E+05,      /* I =143 */
(PID.TID 0000.0001)                 1.451825473793826E+05       /* I =144 */
(PID.TID 0000.0001)     ;
(PID.TID 0000.0001) dxG =  /* dxG(1,:,1,:) ( units: m ) */
(PID.TID 0000.0001)                 1.451825473793826E+05,      /* J =  1 */
(PID.TID 0000.0001)                 2.035754687309966E+05,      /* J =  2 */
(PID.TID 0000.0001)                 2.502174618902466E+05,      /* J =  3 */
(PID.TID 0000.0001)                 2.845970839913985E+05,      /* J =  4 */
(PID.TID 0000.0001)                 3.118088502320059E+05,      /* J =  5 */
(PID.TID 0000.0001)                 3.341162461904549E+05,      /* J =  6 */
(PID.TID 0000.0001)                 3.526377433471617E+05,      /* J =  7 */
(PID.TID 0000.0001)                 3.678791183905560E+05,      /* J =  8 */
(PID.TID 0000.0001)                 3.802036634449060E+05,      /* J =  9 */
(PID.TID 0000.0001)                 3.897005894057774E+05,      /* J = 10 */
(PID.TID 0000.0001)                 3.964976944694623E+05,      /* J = 11 */
(PID.TID 0000.0001)                 4.005720806523124E+05,      /* J = 12 */
(PID.TID 0000.0001)                 4.018816730177203E+05,      /* J = 13 */
(PID.TID 0000.0001)                 4.005720806523124E+05,      /* J = 14 */
(PID.TID 0000.0001)                 3.964976944694623E+05,      /* J = 15 */
(PID.TID 0000.0001)                 3.897005894057774E+05,      /* J = 16 */
(PID.TID 0000.0001)                 3.802036634449060E+05,      /* J = 17 */
(PID.TID 0000.0001)                 3.678791183905560E+05,      /* J = 18 */
(PID.TID 0000.0001)                 3.526377433471617E+05,      /* J = 19 */
(PID.TID 0000.0001)                 3.341162461904549E+05,      /* J = 20 */
(PID.TID 0000.0001)                 3.118088502320059E+05,      /* J = 21 */
(PID.TID 0000.0001)                 2.845970839913985E+05,      /* J = 22 */
(PID.TID 0000.0001)                 2.502174618902466E+05,      /* J = 23 */
(PID.TID 0000.0001)                 2.035754687309966E+05       /* J = 24 */
(PID.TID 0000.0001)     ;
(PID.TID 0000.0001) dyG =  /* dyG(:,1,:,1) ( units: m ) */
(PID.TID 0000.0001)                 1.451825473793826E+05,      /* I =  1 */
(PID.TID 0000.0001)                 2.035754687309966E+05,      /* I =  2 */
(PID.TID 0000.0001)                 2.502174618902466E+05,      /* I =  3 */
(PID.TID 0000.0001)      . . .
(PID.TID 0000.0001)                 3.897005894057774E+05,      /* I = 34 */
(PID.TID 0000.0001)                 3.964976944694623E+05,      /* I = 35 */
(PID.TID 0000.0001)                 4.005720806523124E+05,      /* I = 36 */
(PID.TID 0000.0001)                 4.018816730177203E+05,      /* I = 37 */
(PID.TID 0000.0001)                 4.005720806523124E+05,      /* I = 38 */
(PID.TID 0000.0001)                 3.964976944694623E+05,      /* I = 39 */
(PID.TID 0000.0001)      . . .
(PID.TID 0000.0001)                 2.845970839913985E+05,      /* I = 70 */
(PID.TID 0000.0001)                 2.502174618902466E+05,      /* I = 71 */
(PID.TID 0000.0001)                 2.035754687309966E+05,      /* I = 72 */
(PID.TID 0000.0001)                 1.451825473793826E+05,      /* I = 73 */
(PID.TID 0000.0001)                 2.035754687309966E+05,      /* I = 74 */
(PID.TID 0000.0001)                 2.502174618902466E+05,      /* I = 75 */
(PID.TID 0000.0001)      . . .
(PID.TID 0000.0001)                 3.897005894057774E+05,      /* I =106 */
(PID.TID 0000.0001)                 3.964976944694623E+05,      /* I =107 */
(PID.TID 0000.0001)                 4.005720806523124E+05,      /* I =108 */
(PID.TID 0000.0001)                 4.018816730177203E+05,      /* I =109 */
(PID.TID 0000.0001)                 4.005720806523124E+05,      /* I =110 */
(PID.TID 0000.0001)                 3.964976944694623E+05,      /* I =111 */
(PID.TID 0000.0001)      . . .
(PID.TID 0000.0001)                 2.845970839913985E+05,      /* I =142 */
(PID.TID 0000.0001)                 2.502174618902466E+05,      /* I =143 */
(PID.TID 0000.0001)                 2.035754687309966E+05       /* I =144 */
(PID.TID 0000.0001)     ;
(PID.TID 0000.0001) dyG =  /* dyG(1,:,1,:) ( units: m ) */
(PID.TID 0000.0001)                 1.451825473793826E+05,      /* J =  1 */
(PID.TID 0000.0001)                 2.263713942765605E+05,      /* J =  2 */
(PID.TID 0000.0001)                 2.677552712127340E+05,      /* J =  3 */
(PID.TID 0000.0001)                 2.988620373324543E+05,      /* J =  4 */
(PID.TID 0000.0001)                 3.236805828446414E+05,      /* J =  5 */
(PID.TID 0000.0001)                 3.440774248761908E+05,      /* J =  6 */
(PID.TID 0000.0001)                 3.609071569497766E+05,      /* J =  7 */
(PID.TID 0000.0001)                 3.746232998453116E+05,      /* J =  8 */
(PID.TID 0000.0001)                 3.854185876600230E+05,      /* J =  9 */
(PID.TID 0000.0001)                 3.934567971173259E+05,      /* J = 10 */
(PID.TID 0000.0001)                 3.988026331294687E+05,      /* J = 11 */
(PID.TID 0000.0001)     2 @  4.014680116057578E+05,             /* J = 12: 13 */
(PID.TID 0000.0001)                 3.988026331294686E+05,      /* J = 14 */
(PID.TID 0000.0001)                 3.934567971173259E+05,      /* J = 15 */
(PID.TID 0000.0001)                 3.854185876600229E+05,      /* J = 16 */
(PID.TID 0000.0001)                 3.746232998453116E+05,      /* J = 17 */
(PID.TID 0000.0001)                 3.609071569497766E+05,      /* J = 18 */
(PID.TID 0000.0001)                 3.440774248761908E+05,      /* J = 19 */
(PID.TID 0000.0001)                 3.236805828446414E+05,      /* J = 20 */
(PID.TID 0000.0001)                 2.988620373324543E+05,      /* J = 21 */
(PID.TID 0000.0001)                 2.677552712127340E+05,      /* J = 22 */
(PID.TID 0000.0001)                 2.263713942765605E+05,      /* J = 23 */
(PID.TID 0000.0001)                 1.451825473793826E+05       /* J = 24 */
(PID.TID 0000.0001)     ;
(PID.TID 0000.0001) dxC =  /* dxC(:,1,:,1) ( units: m ) */
(PID.TID 0000.0001)                 1.554406436806963E+05,      /* I =  1 */
(PID.TID 0000.0001)                 2.050577168035814E+05,      /* I =  2 */
(PID.TID 0000.0001)                 2.509117970055231E+05,      /* I =  3 */
(PID.TID 0000.0001)      . . .
(PID.TID 0000.0001)                 3.900764753900591E+05,      /* I = 34 */
(PID.TID 0000.0001)                 3.967653331586427E+05,      /* I = 35 */
(PID.TID 0000.0001)                 4.007658562399705E+05,      /* I = 36 */
(PID.TID 0000.0001)                 4.020962666419666E+05,      /* I = 37 */
(PID.TID 0000.0001)                 4.007658562399705E+05,      /* I = 38 */
(PID.TID 0000.0001)                 3.967653331586428E+05,      /* I = 39 */
(PID.TID 0000.0001)      . . .
(PID.TID 0000.0001)                 2.853398808493375E+05,      /* I = 70 */
(PID.TID 0000.0001)                 2.509117970055231E+05,      /* I = 71 */
(PID.TID 0000.0001)                 2.050577168035814E+05,      /* I = 72 */
(PID.TID 0000.0001)                 1.554406436806963E+05,      /* I = 73 */
(PID.TID 0000.0001)                 2.050577168035814E+05,      /* I = 74 */
(PID.TID 0000.0001)                 2.509117970055231E+05,      /* I = 75 */
(PID.TID 0000.0001)      . . .
(PID.TID 0000.0001)                 3.900764753900591E+05,      /* I =106 */
(PID.TID 0000.0001)                 3.967653331586427E+05,      /* I =107 */
(PID.TID 0000.0001)                 4.007658562399705E+05,      /* I =108 */
(PID.TID 0000.0001)                 4.020962666419666E+05,      /* I =109 */
(PID.TID 0000.0001)                 4.007658562399705E+05,      /* I =110 */
(PID.TID 0000.0001)                 3.967653331586428E+05,      /* I =111 */
(PID.TID 0000.0001)      . . .
(PID.TID 0000.0001)                 2.853398808493375E+05,      /* I =142 */
(PID.TID 0000.0001)                 2.509117970055231E+05,      /* I =143 */
(PID.TID 0000.0001)                 2.050577168035814E+05       /* I =144 */
(PID.TID 0000.0001)     ;
(PID.TID 0000.0001) dxC =  /* dxC(1,:,1,:) ( units: m ) */
(PID.TID 0000.0001)                 1.554406436806963E+05,      /* J =  1 */
(PID.TID 0000.0001)                 2.246708397179116E+05,      /* J =  2 */
(PID.TID 0000.0001)                 2.667952569068315E+05,      /* J =  3 */
(PID.TID 0000.0001)                 2.979171113176555E+05,      /* J =  4 */
(PID.TID 0000.0001)                 3.228043396962269E+05,      /* J =  5 */
(PID.TID 0000.0001)                 3.433397998559853E+05,      /* J =  6 */
(PID.TID 0000.0001)                 3.602499227648063E+05,      /* J =  7 */
(PID.TID 0000.0001)                 3.741116665013155E+05,      /* J =  8 */
(PID.TID 0000.0001)                 3.850316217746211E+05,      /* J =  9 */
(PID.TID 0000.0001)                 3.932596548119390E+05,      /* J = 10 */
(PID.TID 0000.0001)                 3.986975592394565E+05,      /* J = 11 */
(PID.TID 0000.0001)     2 @  4.014013988536997E+05,             /* J = 12: 13 */
(PID.TID 0000.0001)                 3.986975592394565E+05,      /* J = 14 */
(PID.TID 0000.0001)                 3.932596548119390E+05,      /* J = 15 */
(PID.TID 0000.0001)                 3.850316217746211E+05,      /* J = 16 */
(PID.TID 0000.0001)                 3.741116665013155E+05,      /* J = 17 */
(PID.TID 0000.0001)                 3.602499227648062E+05,      /* J = 18 */
(PID.TID 0000.0001)                 3.433397998559853E+05,      /* J = 19 */
(PID.TID 0000.0001)                 3.228043396962269E+05,      /* J = 20 */
(PID.TID 0000.0001)                 2.979171113176555E+05,      /* J = 21 */
(PID.TID 0000.0001)                 2.667952569068315E+05,      /* J = 22 */
(PID.TID 0000.0001)                 2.246708397179116E+05,      /* J = 23 */
(PID.TID 0000.0001)                 1.554406436806963E+05       /* J = 24 */
(PID.TID 0000.0001)     ;
(PID.TID 0000.0001) dyC =  /* dyC(:,1,:,1) ( units: m ) */
(PID.TID 0000.0001)                 1.554406436806963E+05,      /* I =  1 */
(PID.TID 0000.0001)                 2.246708397179116E+05,      /* I =  2 */
(PID.TID 0000.0001)                 2.667952569068315E+05,      /* I =  3 */
(PID.TID 0000.0001)      . . .
(PID.TID 0000.0001)                 3.932596548119390E+05,      /* I = 34 */
(PID.TID 0000.0001)                 3.986975592394565E+05,      /* I = 35 */
(PID.TID 0000.0001)                 4.014013988536997E+05,      /* I = 36 */
(PID.TID 0000.0001)                 4.014013988536997E+05,      /* I = 37 */
(PID.TID 0000.0001)                 3.986975592394565E+05,      /* I = 38 */
(PID.TID 0000.0001)                 3.932596548119390E+05,      /* I = 39 */
(PID.TID 0000.0001)      . . .
(PID.TID 0000.0001)                 2.667952569068315E+05,      /* I = 70 */
(PID.TID 0000.0001)                 2.246708397179116E+05,      /* I = 71 */
(PID.TID 0000.0001)                 1.554406436806963E+05,      /* I = 72 */
(PID.TID 0000.0001)                 1.554406436806963E+05,      /* I = 73 */
(PID.TID 0000.0001)                 2.246708397179116E+05,      /* I = 74 */
(PID.TID 0000.0001)                 2.667952569068315E+05,      /* I = 75 */
(PID.TID 0000.0001)      . . .
(PID.TID 0000.0001)                 3.932596548119390E+05,      /* I =106 */
(PID.TID 0000.0001)                 3.986975592394565E+05,      /* I =107 */
(PID.TID 0000.0001)                 4.014013988536997E+05,      /* I =108 */
(PID.TID 0000.0001)                 4.014013988536997E+05,      /* I =109 */
(PID.TID 0000.0001)                 3.986975592394565E+05,      /* I =110 */
(PID.TID 0000.0001)                 3.932596548119390E+05,      /* I =111 */
(PID.TID 0000.0001)      . . .
(PID.TID 0000.0001)                 2.667952569068315E+05,      /* I =142 */
(PID.TID 0000.0001)                 2.246708397179116E+05,      /* I =143 */
(PID.TID 0000.0001)                 1.554406436806963E+05       /* I =144 */
(PID.TID 0000.0001)     ;
(PID.TID 0000.0001) dyC =  /* dyC(1,:,1,:) ( units: m ) */
(PID.TID 0000.0001)                 1.554406436806963E+05,      /* J =  1 */
(PID.TID 0000.0001)                 2.050577168035814E+05,      /* J =  2 */
(PID.TID 0000.0001)                 2.509117970055231E+05,      /* J =  3 */
(PID.TID 0000.0001)                 2.853398808493375E+05,      /* J =  4 */
(PID.TID 0000.0001)                 3.125171759384927E+05,      /* J =  5 */
(PID.TID 0000.0001)                 3.348152821728783E+05,      /* J =  6 */
(PID.TID 0000.0001)                 3.533014521570507E+05,      /* J =  7 */
(PID.TID 0000.0001)                 3.684631395467056E+05,      /* J =  8 */
(PID.TID 0000.0001)                 3.806798159676279E+05,      /* J =  9 */
(PID.TID 0000.0001)                 3.900764753900591E+05,      /* J = 10 */
(PID.TID 0000.0001)                 3.967653331586427E+05,      /* J = 11 */
(PID.TID 0000.0001)                 4.007658562399705E+05,      /* J = 12 */
(PID.TID 0000.0001)                 4.020962666419666E+05,      /* J = 13 */
(PID.TID 0000.0001)                 4.007658562399705E+05,      /* J = 14 */
(PID.TID 0000.0001)                 3.967653331586428E+05,      /* J = 15 */
(PID.TID 0000.0001)                 3.900764753900591E+05,      /* J = 16 */
(PID.TID 0000.0001)                 3.806798159676280E+05,      /* J = 17 */
(PID.TID 0000.0001)                 3.684631395467056E+05,      /* J = 18 */
(PID.TID 0000.0001)                 3.533014521570507E+05,      /* J = 19 */
(PID.TID 0000.0001)                 3.348152821728782E+05,      /* J = 20 */
(PID.TID 0000.0001)                 3.125171759384927E+05,      /* J = 21 */
(PID.TID 0000.0001)                 2.853398808493375E+05,      /* J = 22 */
(PID.TID 0000.0001)                 2.509117970055231E+05,      /* J = 23 */
(PID.TID 0000.0001)                 2.050577168035814E+05       /* J = 24 */
(PID.TID 0000.0001)     ;
(PID.TID 0000.0001) dxV =  /* dxV(:,1,:,1) ( units: m ) */
(PID.TID 0000.0001)                 1.073234330495632E+05,      /* I =  1 */
(PID.TID 0000.0001)                 1.985735990924987E+05,      /* I =  2 */
(PID.TID 0000.0001)                 2.487081739783213E+05,      /* I =  3 */
(PID.TID 0000.0001)      . . .
(PID.TID 0000.0001)                 3.897956259259311E+05,      /* I = 34 */
(PID.TID 0000.0001)                 3.964575398278304E+05,      /* I = 35 */
(PID.TID 0000.0001)                 4.004747979050998E+05,      /* I = 36 */
(PID.TID 0000.0001)                 4.017992072557876E+05,      /* I = 37 */
(PID.TID 0000.0001)                 4.004747979050998E+05,      /* I = 38 */
(PID.TID 0000.0001)                 3.964575398278304E+05,      /* I = 39 */
(PID.TID 0000.0001)      . . .
(PID.TID 0000.0001)                 2.843739814187906E+05,      /* I = 70 */
(PID.TID 0000.0001)                 2.487081739783213E+05,      /* I = 71 */
(PID.TID 0000.0001)                 1.985735990924987E+05,      /* I = 72 */
(PID.TID 0000.0001)                 1.073234330495632E+05,      /* I = 73 */
(PID.TID 0000.0001)                 1.985735990924987E+05,      /* I = 74 */
(PID.TID 0000.0001)                 2.487081739783213E+05,      /* I = 75 */
(PID.TID 0000.0001)      . . .
(PID.TID 0000.0001)                 3.897956259259311E+05,      /* I =106 */
(PID.TID 0000.0001)                 3.964575398278304E+05,      /* I =107 */
(PID.TID 0000.0001)                 4.004747979050998E+05,      /* I =108 */
(PID.TID 0000.0001)                 4.017992072557876E+05,      /* I =109 */
(PID.TID 0000.0001)                 4.004747979050998E+05,      /* I =110 */
(PID.TID 0000.0001)                 3.964575398278304E+05,      /* I =111 */
(PID.TID 0000.0001)      . . .
(PID.TID 0000.0001)                 2.843739814187906E+05,      /* I =142 */
(PID.TID 0000.0001)                 2.487081739783213E+05,      /* I =143 */
(PID.TID 0000.0001)                 1.985735990924987E+05       /* I =144 */
(PID.TID 0000.0001)     ;
(PID.TID 0000.0001) dxV =  /* dxV(1,:,1,:) ( units: m ) */
(PID.TID 0000.0001)                 1.073234330495632E+05,      /* J =  1 */
(PID.TID 0000.0001)                 1.959886874370024E+05,      /* J =  2 */
(PID.TID 0000.0001)                 2.477422787388276E+05,      /* J =  3 */
(PID.TID 0000.0001)                 2.833032263520675E+05,      /* J =  4 */
(PID.TID 0000.0001)                 3.109946114684317E+05,      /* J =  5 */
(PID.TID 0000.0001)                 3.335108031665227E+05,      /* J =  6 */
(PID.TID 0000.0001)                 3.522686189067639E+05,      /* J =  7 */
(PID.TID 0000.0001)                 3.675993189714980E+05,      /* J =  8 */
(PID.TID 0000.0001)                 3.799862536186255E+05,      /* J =  9 */
(PID.TID 0000.0001)                 3.895477723175827E+05,      /* J = 10 */
(PID.TID 0000.0001)                 3.962585646478562E+05,      /* J = 11 */
(PID.TID 0000.0001)                 4.004366859432351E+05,      /* J = 12 */
(PID.TID 0000.0001)                 4.016907436858709E+05,      /* J = 13 */
(PID.TID 0000.0001)                 4.004366859432351E+05,      /* J = 14 */
(PID.TID 0000.0001)                 3.962585646478562E+05,      /* J = 15 */
(PID.TID 0000.0001)                 3.895477723175827E+05,      /* J = 16 */
(PID.TID 0000.0001)                 3.799862536186255E+05,      /* J = 17 */
(PID.TID 0000.0001)                 3.675993189714981E+05,      /* J = 18 */
(PID.TID 0000.0001)                 3.522686189067639E+05,      /* J = 19 */
(PID.TID 0000.0001)                 3.335108031665227E+05,      /* J = 20 */
(PID.TID 0000.0001)                 3.109946114684317E+05,      /* J = 21 */
(PID.TID 0000.0001)                 2.833032263520675E+05,      /* J = 22 */
(PID.TID 0000.0001)                 2.477422787388276E+05,      /* J = 23 */
(PID.TID 0000.0001)                 1.959886874370024E+05       /* J = 24 */
(PID.TID 0000.0001)     ;
(PID.TID 0000.0001) dyU =  /* dyU(:,1,:,1) ( units: m ) */
(PID.TID 0000.0001)                 1.073234330495632E+05,      /* I =  1 */
(PID.TID 0000.0001)                 1.959886874370024E+05,      /* I =  2 */
(PID.TID 0000.0001)                 2.477422787388276E+05,      /* I =  3 */
(PID.TID 0000.0001)      . . .
(PID.TID 0000.0001)                 3.895477723175827E+05,      /* I = 34 */
(PID.TID 0000.0001)                 3.962585646478562E+05,      /* I = 35 */
(PID.TID 0000.0001)                 4.004366859432351E+05,      /* I = 36 */
(PID.TID 0000.0001)                 4.016907436858709E+05,      /* I = 37 */
(PID.TID 0000.0001)                 4.004366859432351E+05,      /* I = 38 */
(PID.TID 0000.0001)                 3.962585646478562E+05,      /* I = 39 */
(PID.TID 0000.0001)      . . .
(PID.TID 0000.0001)                 2.833032263520675E+05,      /* I = 70 */
(PID.TID 0000.0001)                 2.477422787388276E+05,      /* I = 71 */
(PID.TID 0000.0001)                 1.959886874370024E+05,      /* I = 72 */
(PID.TID 0000.0001)                 1.073234330495632E+05,      /* I = 73 */
(PID.TID 0000.0001)                 1.959886874370024E+05,      /* I = 74 */
(PID.TID 0000.0001)                 2.477422787388276E+05,      /* I = 75 */
(PID.TID 0000.0001)      . . .
(PID.TID 0000.0001)                 3.895477723175827E+05,      /* I =106 */
(PID.TID 0000.0001)                 3.962585646478562E+05,      /* I =107 */
(PID.TID 0000.0001)                 4.004366859432351E+05,      /* I =108 */
(PID.TID 0000.0001)                 4.016907436858709E+05,      /* I =109 */
(PID.TID 0000.0001)                 4.004366859432351E+05,      /* I =110 */
(PID.TID 0000.0001)                 3.962585646478562E+05,      /* I =111 */
(PID.TID 0000.0001)      . . .
(PID.TID 0000.0001)                 2.833032263520675E+05,      /* I =142 */
(PID.TID 0000.0001)                 2.477422787388276E+05,      /* I =143 */
(PID.TID 0000.0001)                 1.959886874370024E+05       /* I =144 */
(PID.TID 0000.0001)     ;
(PID.TID 0000.0001) dyU =  /* dyU(1,:,1,:) ( units: m ) */
(PID.TID 0000.0001)                 1.073234330495632E+05,      /* J =  1 */
(PID.TID 0000.0001)                 1.985735990924987E+05,      /* J =  2 */
(PID.TID 0000.0001)                 2.487081739783213E+05,      /* J =  3 */
(PID.TID 0000.0001)                 2.843739814187906E+05,      /* J =  4 */
(PID.TID 0000.0001)                 3.118959896118816E+05,      /* J =  5 */
(PID.TID 0000.0001)                 3.343425680307320E+05,      /* J =  6 */
(PID.TID 0000.0001)                 3.529409885776126E+05,      /* J =  7 */
(PID.TID 0000.0001)                 3.681318916318928E+05,      /* J =  8 */
(PID.TID 0000.0001)                 3.803492680763606E+05,      /* J =  9 */
(PID.TID 0000.0001)                 3.897956259259311E+05,      /* J = 10 */
(PID.TID 0000.0001)                 3.964575398278304E+05,      /* J = 11 */
(PID.TID 0000.0001)                 4.004747979050998E+05,      /* J = 12 */
(PID.TID 0000.0001)                 4.017992072557876E+05,      /* J = 13 */
(PID.TID 0000.0001)                 4.004747979050998E+05,      /* J = 14 */
(PID.TID 0000.0001)                 3.964575398278304E+05,      /* J = 15 */
(PID.TID 0000.0001)                 3.897956259259311E+05,      /* J = 16 */
(PID.TID 0000.0001)                 3.803492680763606E+05,      /* J = 17 */
(PID.TID 0000.0001)                 3.681318916318928E+05,      /* J = 18 */
(PID.TID 0000.0001)                 3.529409885776126E+05,      /* J = 19 */
(PID.TID 0000.0001)                 3.343425680307320E+05,      /* J = 20 */
(PID.TID 0000.0001)                 3.118959896118816E+05,      /* J = 21 */
(PID.TID 0000.0001)                 2.843739814187906E+05,      /* J = 22 */
(PID.TID 0000.0001)                 2.487081739783213E+05,      /* J = 23 */
(PID.TID 0000.0001)                 1.985735990924987E+05       /* J = 24 */
(PID.TID 0000.0001)     ;
(PID.TID 0000.0001) rA  =  /* rA (:,1,:,1) ( units: m^2 ) */
(PID.TID 0000.0001)                 3.052383974197765E+10,      /* I =  1 */
(PID.TID 0000.0001)                 5.293335912516336E+10,      /* I =  2 */
(PID.TID 0000.0001)                 7.240072595757704E+10,      /* I =  3 */
(PID.TID 0000.0001)      . . .
(PID.TID 0000.0001)                 1.549172621118438E+11,      /* I = 34 */
(PID.TID 0000.0001)                 1.591671367092170E+11,      /* I = 35 */
(PID.TID 0000.0001)                 1.613185561102677E+11,      /* I = 36 */
(PID.TID 0000.0001)                 1.613185561102677E+11,      /* I = 37 */
(PID.TID 0000.0001)                 1.591671367092170E+11,      /* I = 38 */
(PID.TID 0000.0001)                 1.549172621118438E+11,      /* I = 39 */
(PID.TID 0000.0001)      . . .
(PID.TID 0000.0001)                 7.240072595757704E+10,      /* I = 70 */
(PID.TID 0000.0001)                 5.293335912516335E+10,      /* I = 71 */
(PID.TID 0000.0001)                 3.052383974197765E+10,      /* I = 72 */
(PID.TID 0000.0001)                 3.052383974197765E+10,      /* I = 73 */
(PID.TID 0000.0001)                 5.293335912516336E+10,      /* I = 74 */
(PID.TID 0000.0001)                 7.240072595757704E+10,      /* I = 75 */
(PID.TID 0000.0001)      . . .
(PID.TID 0000.0001)                 1.549172621118438E+11,      /* I =106 */
(PID.TID 0000.0001)                 1.591671367092170E+11,      /* I =107 */
(PID.TID 0000.0001)                 1.613185561102677E+11,      /* I =108 */
(PID.TID 0000.0001)                 1.613185561102677E+11,      /* I =109 */
(PID.TID 0000.0001)                 1.591671367092170E+11,      /* I =110 */
(PID.TID 0000.0001)                 1.549172621118438E+11,      /* I =111 */
(PID.TID 0000.0001)      . . .
(PID.TID 0000.0001)                 7.240072595757704E+10,      /* I =142 */
(PID.TID 0000.0001)                 5.293335912516335E+10,      /* I =143 */
(PID.TID 0000.0001)                 3.052383974197765E+10       /* I =144 */
(PID.TID 0000.0001)     ;
(PID.TID 0000.0001) rA  =  /* rA (1,:,1,:) ( units: m^2 ) */
(PID.TID 0000.0001)                 3.052383974197765E+10,      /* J =  1 */
(PID.TID 0000.0001)                 5.293335912519940E+10,      /* J =  2 */
(PID.TID 0000.0001)                 7.240072595759506E+10,      /* J =  3 */
(PID.TID 0000.0001)                 8.964322752209772E+10,      /* J =  4 */
(PID.TID 0000.0001)                 1.049253899809489E+11,      /* J =  5 */
(PID.TID 0000.0001)                 1.184593717874130E+11,      /* J =  6 */
(PID.TID 0000.0001)                 1.303131565117627E+11,      /* J =  7 */
(PID.TID 0000.0001)                 1.403871272786593E+11,      /* J =  8 */
(PID.TID 0000.0001)                 1.486227830739568E+11,      /* J =  9 */
(PID.TID 0000.0001)                 1.549172621118257E+11,      /* J = 10 */
(PID.TID 0000.0001)                 1.591671367092981E+11,      /* J = 11 */
(PID.TID 0000.0001)     2 @  1.613185561102497E+11,             /* J = 12: 13 */
(PID.TID 0000.0001)                 1.591671367092981E+11,      /* J = 14 */
(PID.TID 0000.0001)                 1.549172621118257E+11,      /* J = 15 */
(PID.TID 0000.0001)                 1.486227830739568E+11,      /* J = 16 */
(PID.TID 0000.0001)                 1.403871272786593E+11,      /* J = 17 */
(PID.TID 0000.0001)                 1.303131565117627E+11,      /* J = 18 */
(PID.TID 0000.0001)                 1.184593717874130E+11,      /* J = 19 */
(PID.TID 0000.0001)                 1.049253899809489E+11,      /* J = 20 */
(PID.TID 0000.0001)                 8.964322752209772E+10,      /* J = 21 */
(PID.TID 0000.0001)                 7.240072595759506E+10,      /* J = 22 */
(PID.TID 0000.0001)                 5.293335912519939E+10,      /* J = 23 */
(PID.TID 0000.0001)                 3.052383974197765E+10       /* J = 24 */
(PID.TID 0000.0001)     ;
(PID.TID 0000.0001) rAw =  /* rAw(:,1,:,1) ( units: m^2 ) */
(PID.TID 0000.0001)                 2.459987321579695E+10,      /* I =  1 */
(PID.TID 0000.0001)                 4.208569626784441E+10,      /* I =  2 */
(PID.TID 0000.0001)                 6.294679660237782E+10,      /* I =  3 */
(PID.TID 0000.0001)      . . .
(PID.TID 0000.0001)                 1.520174004228259E+11,      /* I = 34 */
(PID.TID 0000.0001)                 1.573024553042191E+11,      /* I = 35 */
(PID.TID 0000.0001)                 1.605135173356231E+11,      /* I = 36 */
(PID.TID 0000.0001)                 1.615823692847176E+11,      /* I = 37 */
(PID.TID 0000.0001)                 1.605135173356231E+11,      /* I = 38 */
(PID.TID 0000.0001)                 1.573024553042192E+11,      /* I = 39 */
(PID.TID 0000.0001)      . . .
(PID.TID 0000.0001)                 8.133010332734296E+10,      /* I = 70 */
(PID.TID 0000.0001)                 6.294679660237782E+10,      /* I = 71 */
(PID.TID 0000.0001)                 4.208569626784441E+10,      /* I = 72 */
(PID.TID 0000.0001)                 2.459987321579695E+10,      /* I = 73 */
(PID.TID 0000.0001)                 4.208569626784441E+10,      /* I = 74 */
(PID.TID 0000.0001)                 6.294679660237782E+10,      /* I = 75 */
(PID.TID 0000.0001)      . . .
(PID.TID 0000.0001)                 1.520174004228259E+11,      /* I =106 */
(PID.TID 0000.0001)                 1.573024553042191E+11,      /* I =107 */
(PID.TID 0000.0001)                 1.605135173356231E+11,      /* I =108 */
(PID.TID 0000.0001)                 1.615823692847176E+11,      /* I =109 */
(PID.TID 0000.0001)                 1.605135173356231E+11,      /* I =110 */
(PID.TID 0000.0001)                 1.573024553042192E+11,      /* I =111 */
(PID.TID 0000.0001)      . . .
(PID.TID 0000.0001)                 8.133010332734296E+10,      /* I =142 */
(PID.TID 0000.0001)                 6.294679660237782E+10,      /* I =143 */
(PID.TID 0000.0001)                 4.208569626784441E+10       /* I =144 */
(PID.TID 0000.0001)     ;
(PID.TID 0000.0001) rAw =  /* rAw(1,:,1,:) ( units: m^2 ) */
(PID.TID 0000.0001)                 2.459987321579695E+10,      /* J =  1 */
(PID.TID 0000.0001)                 5.107770127475098E+10,      /* J =  2 */
(PID.TID 0000.0001)                 7.147072143434398E+10,      /* J =  3 */
(PID.TID 0000.0001)                 8.907108758438782E+10,      /* J =  4 */
(PID.TID 0000.0001)                 1.045094480967093E+11,      /* J =  5 */
(PID.TID 0000.0001)                 1.181499238129279E+11,      /* J =  6 */
(PID.TID 0000.0001)                 1.300535723350617E+11,      /* J =  7 */
(PID.TID 0000.0001)                 1.401743452978992E+11,      /* J =  8 */
(PID.TID 0000.0001)                 1.484322384907274E+11,      /* J =  9 */
(PID.TID 0000.0001)                 1.547486951582445E+11,      /* J = 10 */
(PID.TID 0000.0001)                 1.590162266605332E+11,      /* J = 11 */
(PID.TID 0000.0001)     2 @  1.611688303100770E+11,             /* J = 12: 13 */
(PID.TID 0000.0001)                 1.590162266605331E+11,      /* J = 14 */
(PID.TID 0000.0001)                 1.547486951582445E+11,      /* J = 15 */
(PID.TID 0000.0001)                 1.484322384907274E+11,      /* J = 16 */
(PID.TID 0000.0001)                 1.401743452978992E+11,      /* J = 17 */
(PID.TID 0000.0001)                 1.300535723350617E+11,      /* J = 18 */
(PID.TID 0000.0001)                 1.181499238129279E+11,      /* J = 19 */
(PID.TID 0000.0001)                 1.045094480967093E+11,      /* J = 20 */
(PID.TID 0000.0001)                 8.907108758438782E+10,      /* J = 21 */
(PID.TID 0000.0001)                 7.147072143434398E+10,      /* J = 22 */
(PID.TID 0000.0001)                 5.107770127475098E+10,      /* J = 23 */
(PID.TID 0000.0001)                 2.459987321579695E+10       /* J = 24 */
(PID.TID 0000.0001)     ;
(PID.TID 0000.0001) rAs =  /* rAs(:,1,:,1) ( units: m^2 ) */
(PID.TID 0000.0001)                 2.459987321586903E+10,      /* I =  1 */
(PID.TID 0000.0001)                 5.107770127471494E+10,      /* I =  2 */
(PID.TID 0000.0001)                 7.147072143425388E+10,      /* I =  3 */
(PID.TID 0000.0001)      . . .
(PID.TID 0000.0001)                 1.547486951582805E+11,      /* I = 34 */
(PID.TID 0000.0001)                 1.590162266604971E+11,      /* I = 35 */
(PID.TID 0000.0001)                 1.611688303100950E+11,      /* I = 36 */
(PID.TID 0000.0001)                 1.611688303100950E+11,      /* I = 37 */
(PID.TID 0000.0001)                 1.590162266604971E+11,      /* I = 38 */
(PID.TID 0000.0001)                 1.547486951582806E+11,      /* I = 39 */
(PID.TID 0000.0001)      . . .
(PID.TID 0000.0001)                 7.147072143425388E+10,      /* I = 70 */
(PID.TID 0000.0001)                 5.107770127471494E+10,      /* I = 71 */
(PID.TID 0000.0001)                 2.459987321586903E+10,      /* I = 72 */
(PID.TID 0000.0001)                 2.459987321586903E+10,      /* I = 73 */
(PID.TID 0000.0001)                 5.107770127471494E+10,      /* I = 74 */
(PID.TID 0000.0001)                 7.147072143425388E+10,      /* I = 75 */
(PID.TID 0000.0001)      . . .
(PID.TID 0000.0001)                 1.547486951582805E+11,      /* I =106 */
(PID.TID 0000.0001)                 1.590162266604971E+11,      /* I =107 */
(PID.TID 0000.0001)                 1.611688303100950E+11,      /* I =108 */
(PID.TID 0000.0001)                 1.611688303100950E+11,      /* I =109 */
(PID.TID 0000.0001)                 1.590162266604971E+11,      /* I =110 */
(PID.TID 0000.0001)                 1.547486951582806E+11,      /* I =111 */
(PID.TID 0000.0001)      . . .
(PID.TID 0000.0001)                 7.147072143425388E+10,      /* I =142 */
(PID.TID 0000.0001)                 5.107770127471494E+10,      /* I =143 */
(PID.TID 0000.0001)                 2.459987321586903E+10       /* I =144 */
(PID.TID 0000.0001)     ;
(PID.TID 0000.0001) rAs =  /* rAs(1,:,1,:) ( units: m^2 ) */
(PID.TID 0000.0001)                 2.459987321586903E+10,      /* J =  1 */
(PID.TID 0000.0001)                 4.208569626782639E+10,      /* J =  2 */
(PID.TID 0000.0001)                 6.294679660240485E+10,      /* J =  3 */
(PID.TID 0000.0001)                 8.133010332736098E+10,      /* J =  4 */
(PID.TID 0000.0001)                 9.750085127458887E+10,      /* J =  5 */
(PID.TID 0000.0001)                 1.119057790311065E+11,      /* J =  6 */
(PID.TID 0000.0001)                 1.246070689383815E+11,      /* J =  7 */
(PID.TID 0000.0001)                 1.355699756093808E+11,      /* J =  8 */
(PID.TID 0000.0001)                 1.447411705469368E+11,      /* J =  9 */
(PID.TID 0000.0001)                 1.520174004227989E+11,      /* J = 10 */
(PID.TID 0000.0001)                 1.573024553042732E+11,      /* J = 11 */
(PID.TID 0000.0001)                 1.605135173356321E+11,      /* J = 12 */
(PID.TID 0000.0001)                 1.615823692847176E+11,      /* J = 13 */
(PID.TID 0000.0001)                 1.605135173356321E+11,      /* J = 14 */
(PID.TID 0000.0001)                 1.573024553042732E+11,      /* J = 15 */
(PID.TID 0000.0001)                 1.520174004227989E+11,      /* J = 16 */
(PID.TID 0000.0001)                 1.447411705469368E+11,      /* J = 17 */
(PID.TID 0000.0001)                 1.355699756093808E+11,      /* J = 18 */
(PID.TID 0000.0001)                 1.246070689383815E+11,      /* J = 19 */
(PID.TID 0000.0001)                 1.119057790311065E+11,      /* J = 20 */
(PID.TID 0000.0001)                 9.750085127458887E+10,      /* J = 21 */
(PID.TID 0000.0001)                 8.133010332736098E+10,      /* J = 22 */
(PID.TID 0000.0001)                 6.294679660240485E+10,      /* J = 23 */
(PID.TID 0000.0001)                 4.208569626782639E+10       /* J = 24 */
(PID.TID 0000.0001)     ;
(PID.TID 0000.0001) globalArea = /* Integrated horizontal Area (m^2) */
(PID.TID 0000.0001)                 4.984133898231083E+14
(PID.TID 0000.0001)     ;
(PID.TID 0000.0001) hasWetCSCorners = /* Domain contains CS corners (True/False) */
(PID.TID 0000.0001)                   T
(PID.TID 0000.0001)     ;
(PID.TID 0000.0001) // =======================================================
(PID.TID 0000.0001) // End of Model config. summary
(PID.TID 0000.0001) // =======================================================
(PID.TID 0000.0001) 
(PID.TID 0000.0001) == Packages configuration : Check & print summary ==
(PID.TID 0000.0001) 
(PID.TID 0000.0001) GMREDI_CHECK: #define GMREDI
(PID.TID 0000.0001) GM_AdvForm =     /* if FALSE => use SkewFlux Form */
(PID.TID 0000.0001)                   T
(PID.TID 0000.0001)     ;
(PID.TID 0000.0001) GM_InMomAsStress = /* if TRUE => apply as Eddy Stress */
(PID.TID 0000.0001)                   F
(PID.TID 0000.0001)     ;
(PID.TID 0000.0001) GM_AdvSeparate = /* Calc Bolus & Euler Adv. separately */
(PID.TID 0000.0001)                   F
(PID.TID 0000.0001)     ;
(PID.TID 0000.0001) GM_ExtraDiag =   /* Tensor Extra Diag (line 1&2) non 0 */
(PID.TID 0000.0001)                   T
(PID.TID 0000.0001)     ;
(PID.TID 0000.0001) GM_isopycK =    /* Background Isopyc. Diffusivity [m^2/s] */
(PID.TID 0000.0001)                 1.200000000000000E+03
(PID.TID 0000.0001)     ;
(PID.TID 0000.0001) GM_skewflx*K =  /* Background GM_SkewFlx Diffusivity [m^2/s] */
(PID.TID 0000.0001)                 0.000000000000000E+00
(PID.TID 0000.0001)     ;
(PID.TID 0000.0001) GM_advec*K =    /* Backg. GM-Advec(=Bolus) Diffusivity [m^2/s]*/
(PID.TID 0000.0001)                 1.200000000000000E+03
(PID.TID 0000.0001)     ;
(PID.TID 0000.0001) GM_Kmin_horiz = /* Minimum Horizontal Diffusivity [m^2/s] */
(PID.TID 0000.0001)                 5.000000000000000E+01
(PID.TID 0000.0001)     ;
(PID.TID 0000.0001) GM_Visbeck_alpha = /* Visbeck alpha coeff. [-] */
(PID.TID 0000.0001)                 0.000000000000000E+00
(PID.TID 0000.0001)     ;
(PID.TID 0000.0001) GM_Small_Number =  /* epsilon used in slope calc */
(PID.TID 0000.0001)                 9.999999999999999E-21
(PID.TID 0000.0001)     ;
(PID.TID 0000.0001) GM_slopeSqCutoff = /* Slope^2 cut-off value */
(PID.TID 0000.0001)                 1.000000000000000E+48
(PID.TID 0000.0001)     ;
(PID.TID 0000.0001) GM_taper_scheme =  /* Type of Tapering/Clipping scheme */
(PID.TID 0000.0001)               'gkw91                                   '
(PID.TID 0000.0001)     ;
(PID.TID 0000.0001) GM_maxSlope =  /* Maximum Slope (Tapering/Clipping) */
(PID.TID 0000.0001)                 1.000000000000000E-02
(PID.TID 0000.0001)     ;
(PID.TID 0000.0001) GM_facTrL2dz = /* Minimum Trans.Layer Thick. (factor of dz) */
(PID.TID 0000.0001)                 1.000000000000000E+00
(PID.TID 0000.0001)     ;
(PID.TID 0000.0001) GM_facTrL2ML = /* Max.Trans.Layer Thick. (factor of MxL Depth)*/
(PID.TID 0000.0001)                 5.000000000000000E+00
(PID.TID 0000.0001)     ;
(PID.TID 0000.0001) GM_maxTransLay = /* Maximum Transition Layer Thickness [m] */
(PID.TID 0000.0001)                 5.000000000000000E+02
(PID.TID 0000.0001)     ;
(PID.TID 0000.0001) GM_UseBVP = /* if TRUE => use bvp a la Ferrari et al. (2010) */
(PID.TID 0000.0001)                   F
(PID.TID 0000.0001)     ;
(PID.TID 0000.0001) GM_BVP_ModeNumber = /* Vertical mode number for BVP wave speed */
(PID.TID 0000.0001)                       1
(PID.TID 0000.0001)     ;
(PID.TID 0000.0001) GM_BVP_cMin = /* Minimum wave speed for BVP [m/s] */
(PID.TID 0000.0001)                 1.000000000000000E-01
(PID.TID 0000.0001)     ;
(PID.TID 0000.0001) GM_useSubMeso = /* if TRUE => use Sub-Meso param. (B.Fox-Kemper) */
(PID.TID 0000.0001)                   F
(PID.TID 0000.0001)     ;
(PID.TID 0000.0001) subMeso_Ceff = /* efficiency coeff. of Mixed-Layer Eddies [-] */
(PID.TID 0000.0001)                 7.000000000000001E-02
(PID.TID 0000.0001)     ;
(PID.TID 0000.0001) subMeso_invTau = /* inverse of Sub-Meso mixing time-scale [/s] */
(PID.TID 0000.0001)                 2.000000000000000E-06
(PID.TID 0000.0001)     ;
(PID.TID 0000.0001) subMeso_LfMin = /* minimum length-scale "Lf" [m] */
(PID.TID 0000.0001)                 1.000000000000000E+03
(PID.TID 0000.0001)     ;
(PID.TID 0000.0001) subMeso_Lmax = /* maximum grid-scale length [m] */
(PID.TID 0000.0001)                 1.100000000000000E+05
(PID.TID 0000.0001)     ;
(PID.TID 0000.0001) GM_useLeithQG = /* if TRUE => add QG Leith viscosity to GMRedi tensor */
(PID.TID 0000.0001)                   F
(PID.TID 0000.0001)     ;
(PID.TID 0000.0001) PTRACERS_CHECK: #define ALLOW_PTRACERS
(PID.TID 0000.0001) // ===================================
(PID.TID 0000.0001) // PTRACERS parameters
(PID.TID 0000.0001) // ===================================
(PID.TID 0000.0001) PTRACERS_numInUse = /* number of tracers */
(PID.TID 0000.0001)                       5
(PID.TID 0000.0001)     ;
(PID.TID 0000.0001) PTRACERS_Iter0 = /* timestep number when tracers are initialized */
(PID.TID 0000.0001)               112406400
(PID.TID 0000.0001)     ;
(PID.TID 0000.0001) PTRACERS_startAllTrc =/* all tracers start @ startTime */
(PID.TID 0000.0001)                   T
(PID.TID 0000.0001)     ;
(PID.TID 0000.0001) PTRACERS_doAB_onGpTr =/* apply AB on Tendencies (rather than on Tracers) */
(PID.TID 0000.0001)                   F
(PID.TID 0000.0001)     ;
(PID.TID 0000.0001) PTRACERS_addSrelax2EmP =/* add Salt relaxation to EmP */
(PID.TID 0000.0001)                   F
(PID.TID 0000.0001)     ;
(PID.TID 0000.0001) PTRACERS_dTLev =   /* Ptracer timestep ( s ) */
(PID.TID 0000.0001)    15 @  3.600000000000000E+03              /* K =  1: 15 */
(PID.TID 0000.0001)     ;
(PID.TID 0000.0001) PTRACERS_monitorFreq = /* Frequency^-1 for monitor output (s) */
(PID.TID 0000.0001)                 3.600000000000000E+03
(PID.TID 0000.0001)     ;
(PID.TID 0000.0001) PTRACERS_dumpFreq = /* Frequency^-1 for snapshot output (s) */
(PID.TID 0000.0001)                 0.000000000000000E+00
(PID.TID 0000.0001)     ;
(PID.TID 0000.0001) PTRACERS_taveFreq = /* Frequency^-1 for time-Aver. output (s) */
(PID.TID 0000.0001)                 0.000000000000000E+00
(PID.TID 0000.0001)     ;
(PID.TID 0000.0001) PTRACERS_useRecords = /* all tracers in 1 file */
(PID.TID 0000.0001)                   F
(PID.TID 0000.0001)     ;
(PID.TID 0000.0001) PTRACERS_timeave_mnc = /* use MNC for Tave output */
(PID.TID 0000.0001)                   F
(PID.TID 0000.0001)     ;
(PID.TID 0000.0001) PTRACERS_snapshot_mnc = /* use MNC for snapshot output */
(PID.TID 0000.0001)                   F
(PID.TID 0000.0001)     ;
(PID.TID 0000.0001) PTRACERS_pickup_write_mnc = /* use MNC for writing pickups */
(PID.TID 0000.0001)                   F
(PID.TID 0000.0001)     ;
(PID.TID 0000.0001) PTRACERS_pickup_read_mnc = /* use MNC for reading pickups */
(PID.TID 0000.0001)                   F
(PID.TID 0000.0001)     ;
(PID.TID 0000.0001)  -----------------------------------
(PID.TID 0000.0001)  tracer number :    1
(PID.TID 0000.0001) PTRACERS_names = /* Tracer short name */
(PID.TID 0000.0001)               'dic'
(PID.TID 0000.0001)     ;
(PID.TID 0000.0001) PTRACERS_long_names = /* Tracer long name */
(PID.TID 0000.0001)               'Dissolved Inorganic Carbon'
(PID.TID 0000.0001)     ;
(PID.TID 0000.0001) PTRACERS_ioLabel = /* tracer IO Label */
(PID.TID 0000.0001)               '01'
(PID.TID 0000.0001)     ;
(PID.TID 0000.0001) PTRACERS_advScheme = /* Advection Scheme */
(PID.TID 0000.0001)                      77
(PID.TID 0000.0001)     ;
(PID.TID 0000.0001) PTRACERS_SOM_Advection = /* tracer uses SOM advection scheme */
(PID.TID 0000.0001)                   F
(PID.TID 0000.0001)     ;
(PID.TID 0000.0001) PTRACERS_ImplVertAdv = /* implicit vert. advection flag */
(PID.TID 0000.0001)                   F
(PID.TID 0000.0001)     ;
(PID.TID 0000.0001) PTRACERS_MultiDimAdv = /* tracer uses Multi-Dim advection */
(PID.TID 0000.0001)                   T
(PID.TID 0000.0001)     ;
(PID.TID 0000.0001) PTRACERS_AdamsBashGtr = /* apply AB on tracer tendency */
(PID.TID 0000.0001)                   F
(PID.TID 0000.0001)     ;
(PID.TID 0000.0001) PTRACERS_AdamsBash_Tr = /* apply AB on passive tracer */
(PID.TID 0000.0001)                   F
(PID.TID 0000.0001)     ;
(PID.TID 0000.0001) PTRACERS_diffKh = /* Laplacian Diffusivity */
(PID.TID 0000.0001)                 0.000000000000000E+00
(PID.TID 0000.0001)     ;
(PID.TID 0000.0001) PTRACERS_diffK4 = /* Biharmonic Diffusivity */
(PID.TID 0000.0001)                 0.000000000000000E+00
(PID.TID 0000.0001)     ;
(PID.TID 0000.0001) PTRACERS_diffKrNr = /* Vertical Diffusivity */
(PID.TID 0000.0001)    15 @  3.000000000000000E-05              /* K =  1: 15 */
(PID.TID 0000.0001)     ;
(PID.TID 0000.0001) PTRACERS_useGMRedi = /* apply GM-Redi */
(PID.TID 0000.0001)                   T
(PID.TID 0000.0001)     ;
(PID.TID 0000.0001) PTRACERS_useDWNSLP = /* apply DOWN-SLOPE Flow */
(PID.TID 0000.0001)                   F
(PID.TID 0000.0001)     ;
(PID.TID 0000.0001) PTRACERS_useKPP = /* apply KPP scheme */
(PID.TID 0000.0001)                   F
(PID.TID 0000.0001)     ;
(PID.TID 0000.0001) PTRACERS_stayPositive = /* use Smolarkiewicz Hack for this tracer */
(PID.TID 0000.0001)                   F
(PID.TID 0000.0001)     ;
(PID.TID 0000.0001) PTRACERS_ref = /* Reference vertical profile */
(PID.TID 0000.0001)    15 @  2.100000000000000E+00              /* K =  1: 15 */
(PID.TID 0000.0001)     ;
(PID.TID 0000.0001) PTRACERS_EvPrRn =/* tracer conc. in Evap. & Rain */
(PID.TID 0000.0001)                 0.000000000000000E+00
(PID.TID 0000.0001)     ;
(PID.TID 0000.0001)  -----------------------------------
(PID.TID 0000.0001)  tracer number :    2
(PID.TID 0000.0001) PTRACERS_names = /* Tracer short name */
(PID.TID 0000.0001)               'alk'
(PID.TID 0000.0001)     ;
(PID.TID 0000.0001) PTRACERS_long_names = /* Tracer long name */
(PID.TID 0000.0001)               'Alkalinity'
(PID.TID 0000.0001)     ;
(PID.TID 0000.0001) PTRACERS_ioLabel = /* tracer IO Label */
(PID.TID 0000.0001)               '02'
(PID.TID 0000.0001)     ;
(PID.TID 0000.0001) PTRACERS_advScheme = /* Advection Scheme */
(PID.TID 0000.0001)                      77
(PID.TID 0000.0001)     ;
(PID.TID 0000.0001) PTRACERS_SOM_Advection = /* tracer uses SOM advection scheme */
(PID.TID 0000.0001)                   F
(PID.TID 0000.0001)     ;
(PID.TID 0000.0001) PTRACERS_ImplVertAdv = /* implicit vert. advection flag */
(PID.TID 0000.0001)                   F
(PID.TID 0000.0001)     ;
(PID.TID 0000.0001) PTRACERS_MultiDimAdv = /* tracer uses Multi-Dim advection */
(PID.TID 0000.0001)                   T
(PID.TID 0000.0001)     ;
(PID.TID 0000.0001) PTRACERS_AdamsBashGtr = /* apply AB on tracer tendency */
(PID.TID 0000.0001)                   F
(PID.TID 0000.0001)     ;
(PID.TID 0000.0001) PTRACERS_AdamsBash_Tr = /* apply AB on passive tracer */
(PID.TID 0000.0001)                   F
(PID.TID 0000.0001)     ;
(PID.TID 0000.0001) PTRACERS_diffKh = /* Laplacian Diffusivity */
(PID.TID 0000.0001)                 0.000000000000000E+00
(PID.TID 0000.0001)     ;
(PID.TID 0000.0001) PTRACERS_diffK4 = /* Biharmonic Diffusivity */
(PID.TID 0000.0001)                 0.000000000000000E+00
(PID.TID 0000.0001)     ;
(PID.TID 0000.0001) PTRACERS_diffKrNr = /* Vertical Diffusivity */
(PID.TID 0000.0001)    15 @  3.000000000000000E-05              /* K =  1: 15 */
(PID.TID 0000.0001)     ;
(PID.TID 0000.0001) PTRACERS_useGMRedi = /* apply GM-Redi */
(PID.TID 0000.0001)                   T
(PID.TID 0000.0001)     ;
(PID.TID 0000.0001) PTRACERS_useDWNSLP = /* apply DOWN-SLOPE Flow */
(PID.TID 0000.0001)                   F
(PID.TID 0000.0001)     ;
(PID.TID 0000.0001) PTRACERS_useKPP = /* apply KPP scheme */
(PID.TID 0000.0001)                   F
(PID.TID 0000.0001)     ;
(PID.TID 0000.0001) PTRACERS_stayPositive = /* use Smolarkiewicz Hack for this tracer */
(PID.TID 0000.0001)                   F
(PID.TID 0000.0001)     ;
(PID.TID 0000.0001) PTRACERS_ref = /* Reference vertical profile */
(PID.TID 0000.0001)    15 @  2.360000000000000E+00              /* K =  1: 15 */
(PID.TID 0000.0001)     ;
(PID.TID 0000.0001) PTRACERS_EvPrRn =/* tracer conc. in Evap. & Rain */
(PID.TID 0000.0001)                 0.000000000000000E+00
(PID.TID 0000.0001)     ;
(PID.TID 0000.0001)  -----------------------------------
(PID.TID 0000.0001)  tracer number :    3
(PID.TID 0000.0001) PTRACERS_names = /* Tracer short name */
(PID.TID 0000.0001)               'po4'
(PID.TID 0000.0001)     ;
(PID.TID 0000.0001) PTRACERS_long_names = /* Tracer long name */
(PID.TID 0000.0001)               'Phosphate'
(PID.TID 0000.0001)     ;
(PID.TID 0000.0001) PTRACERS_ioLabel = /* tracer IO Label */
(PID.TID 0000.0001)               '03'
(PID.TID 0000.0001)     ;
(PID.TID 0000.0001) PTRACERS_advScheme = /* Advection Scheme */
(PID.TID 0000.0001)                      77
(PID.TID 0000.0001)     ;
(PID.TID 0000.0001) PTRACERS_SOM_Advection = /* tracer uses SOM advection scheme */
(PID.TID 0000.0001)                   F
(PID.TID 0000.0001)     ;
(PID.TID 0000.0001) PTRACERS_ImplVertAdv = /* implicit vert. advection flag */
(PID.TID 0000.0001)                   F
(PID.TID 0000.0001)     ;
(PID.TID 0000.0001) PTRACERS_MultiDimAdv = /* tracer uses Multi-Dim advection */
(PID.TID 0000.0001)                   T
(PID.TID 0000.0001)     ;
(PID.TID 0000.0001) PTRACERS_AdamsBashGtr = /* apply AB on tracer tendency */
(PID.TID 0000.0001)                   F
(PID.TID 0000.0001)     ;
(PID.TID 0000.0001) PTRACERS_AdamsBash_Tr = /* apply AB on passive tracer */
(PID.TID 0000.0001)                   F
(PID.TID 0000.0001)     ;
(PID.TID 0000.0001) PTRACERS_diffKh = /* Laplacian Diffusivity */
(PID.TID 0000.0001)                 0.000000000000000E+00
(PID.TID 0000.0001)     ;
(PID.TID 0000.0001) PTRACERS_diffK4 = /* Biharmonic Diffusivity */
(PID.TID 0000.0001)                 0.000000000000000E+00
(PID.TID 0000.0001)     ;
(PID.TID 0000.0001) PTRACERS_diffKrNr = /* Vertical Diffusivity */
(PID.TID 0000.0001)    15 @  3.000000000000000E-05              /* K =  1: 15 */
(PID.TID 0000.0001)     ;
(PID.TID 0000.0001) PTRACERS_useGMRedi = /* apply GM-Redi */
(PID.TID 0000.0001)                   T
(PID.TID 0000.0001)     ;
(PID.TID 0000.0001) PTRACERS_useDWNSLP = /* apply DOWN-SLOPE Flow */
(PID.TID 0000.0001)                   F
(PID.TID 0000.0001)     ;
(PID.TID 0000.0001) PTRACERS_useKPP = /* apply KPP scheme */
(PID.TID 0000.0001)                   F
(PID.TID 0000.0001)     ;
(PID.TID 0000.0001) PTRACERS_stayPositive = /* use Smolarkiewicz Hack for this tracer */
(PID.TID 0000.0001)                   T
(PID.TID 0000.0001)     ;
(PID.TID 0000.0001) PTRACERS_ref = /* Reference vertical profile */
(PID.TID 0000.0001)    15 @  2.200000000000000E-03              /* K =  1: 15 */
(PID.TID 0000.0001)     ;
(PID.TID 0000.0001) PTRACERS_EvPrRn =/* tracer conc. in Evap. & Rain */
(PID.TID 0000.0001)                 0.000000000000000E+00
(PID.TID 0000.0001)     ;
(PID.TID 0000.0001)  -----------------------------------
(PID.TID 0000.0001)  tracer number :    4
(PID.TID 0000.0001) PTRACERS_names = /* Tracer short name */
(PID.TID 0000.0001)               'dop'
(PID.TID 0000.0001)     ;
(PID.TID 0000.0001) PTRACERS_long_names = /* Tracer long name */
(PID.TID 0000.0001)               'Dissolved Organic Phosphorus'
(PID.TID 0000.0001)     ;
(PID.TID 0000.0001) PTRACERS_ioLabel = /* tracer IO Label */
(PID.TID 0000.0001)               '04'
(PID.TID 0000.0001)     ;
(PID.TID 0000.0001) PTRACERS_advScheme = /* Advection Scheme */
(PID.TID 0000.0001)                      77
(PID.TID 0000.0001)     ;
(PID.TID 0000.0001) PTRACERS_SOM_Advection = /* tracer uses SOM advection scheme */
(PID.TID 0000.0001)                   F
(PID.TID 0000.0001)     ;
(PID.TID 0000.0001) PTRACERS_ImplVertAdv = /* implicit vert. advection flag */
(PID.TID 0000.0001)                   F
(PID.TID 0000.0001)     ;
(PID.TID 0000.0001) PTRACERS_MultiDimAdv = /* tracer uses Multi-Dim advection */
(PID.TID 0000.0001)                   T
(PID.TID 0000.0001)     ;
(PID.TID 0000.0001) PTRACERS_AdamsBashGtr = /* apply AB on tracer tendency */
(PID.TID 0000.0001)                   F
(PID.TID 0000.0001)     ;
(PID.TID 0000.0001) PTRACERS_AdamsBash_Tr = /* apply AB on passive tracer */
(PID.TID 0000.0001)                   F
(PID.TID 0000.0001)     ;
(PID.TID 0000.0001) PTRACERS_diffKh = /* Laplacian Diffusivity */
(PID.TID 0000.0001)                 0.000000000000000E+00
(PID.TID 0000.0001)     ;
(PID.TID 0000.0001) PTRACERS_diffK4 = /* Biharmonic Diffusivity */
(PID.TID 0000.0001)                 0.000000000000000E+00
(PID.TID 0000.0001)     ;
(PID.TID 0000.0001) PTRACERS_diffKrNr = /* Vertical Diffusivity */
(PID.TID 0000.0001)    15 @  3.000000000000000E-05              /* K =  1: 15 */
(PID.TID 0000.0001)     ;
(PID.TID 0000.0001) PTRACERS_useGMRedi = /* apply GM-Redi */
(PID.TID 0000.0001)                   T
(PID.TID 0000.0001)     ;
(PID.TID 0000.0001) PTRACERS_useDWNSLP = /* apply DOWN-SLOPE Flow */
(PID.TID 0000.0001)                   F
(PID.TID 0000.0001)     ;
(PID.TID 0000.0001) PTRACERS_useKPP = /* apply KPP scheme */
(PID.TID 0000.0001)                   F
(PID.TID 0000.0001)     ;
(PID.TID 0000.0001) PTRACERS_stayPositive = /* use Smolarkiewicz Hack for this tracer */
(PID.TID 0000.0001)                   T
(PID.TID 0000.0001)     ;
(PID.TID 0000.0001) PTRACERS_ref = /* Reference vertical profile */
(PID.TID 0000.0001)    15 @  0.000000000000000E+00              /* K =  1: 15 */
(PID.TID 0000.0001)     ;
(PID.TID 0000.0001) PTRACERS_EvPrRn =/* tracer conc. in Evap. & Rain */
(PID.TID 0000.0001)                 0.000000000000000E+00
(PID.TID 0000.0001)     ;
(PID.TID 0000.0001)  -----------------------------------
(PID.TID 0000.0001)  tracer number :    5
(PID.TID 0000.0001) PTRACERS_names = /* Tracer short name */
(PID.TID 0000.0001)               'o2'
(PID.TID 0000.0001)     ;
(PID.TID 0000.0001) PTRACERS_long_names = /* Tracer long name */
(PID.TID 0000.0001)               'Dissolved Oxygen'
(PID.TID 0000.0001)     ;
(PID.TID 0000.0001) PTRACERS_ioLabel = /* tracer IO Label */
(PID.TID 0000.0001)               '05'
(PID.TID 0000.0001)     ;
(PID.TID 0000.0001) PTRACERS_advScheme = /* Advection Scheme */
(PID.TID 0000.0001)                      77
(PID.TID 0000.0001)     ;
(PID.TID 0000.0001) PTRACERS_SOM_Advection = /* tracer uses SOM advection scheme */
(PID.TID 0000.0001)                   F
(PID.TID 0000.0001)     ;
(PID.TID 0000.0001) PTRACERS_ImplVertAdv = /* implicit vert. advection flag */
(PID.TID 0000.0001)                   F
(PID.TID 0000.0001)     ;
(PID.TID 0000.0001) PTRACERS_MultiDimAdv = /* tracer uses Multi-Dim advection */
(PID.TID 0000.0001)                   T
(PID.TID 0000.0001)     ;
(PID.TID 0000.0001) PTRACERS_AdamsBashGtr = /* apply AB on tracer tendency */
(PID.TID 0000.0001)                   F
(PID.TID 0000.0001)     ;
(PID.TID 0000.0001) PTRACERS_AdamsBash_Tr = /* apply AB on passive tracer */
(PID.TID 0000.0001)                   F
(PID.TID 0000.0001)     ;
(PID.TID 0000.0001) PTRACERS_diffKh = /* Laplacian Diffusivity */
(PID.TID 0000.0001)                 0.000000000000000E+00
(PID.TID 0000.0001)     ;
(PID.TID 0000.0001) PTRACERS_diffK4 = /* Biharmonic Diffusivity */
(PID.TID 0000.0001)                 0.000000000000000E+00
(PID.TID 0000.0001)     ;
(PID.TID 0000.0001) PTRACERS_diffKrNr = /* Vertical Diffusivity */
(PID.TID 0000.0001)    15 @  3.000000000000000E-05              /* K =  1: 15 */
(PID.TID 0000.0001)     ;
(PID.TID 0000.0001) PTRACERS_useGMRedi = /* apply GM-Redi */
(PID.TID 0000.0001)                   T
(PID.TID 0000.0001)     ;
(PID.TID 0000.0001) PTRACERS_useDWNSLP = /* apply DOWN-SLOPE Flow */
(PID.TID 0000.0001)                   F
(PID.TID 0000.0001)     ;
(PID.TID 0000.0001) PTRACERS_useKPP = /* apply KPP scheme */
(PID.TID 0000.0001)                   F
(PID.TID 0000.0001)     ;
(PID.TID 0000.0001) PTRACERS_stayPositive = /* use Smolarkiewicz Hack for this tracer */
(PID.TID 0000.0001)                   T
(PID.TID 0000.0001)     ;
(PID.TID 0000.0001) PTRACERS_ref = /* Reference vertical profile */
(PID.TID 0000.0001)    15 @  9.000000000000000E-02              /* K =  1: 15 */
(PID.TID 0000.0001)     ;
(PID.TID 0000.0001) PTRACERS_EvPrRn =/* tracer conc. in Evap. & Rain */
(PID.TID 0000.0001)                 0.000000000000000E+00
(PID.TID 0000.0001)     ;
(PID.TID 0000.0001)  -----------------------------------
(PID.TID 0000.0001) GCHEM_CHECK  --> Starts to check GCHEM set-up
(PID.TID 0000.0001) GCHEM_CHECK  <-- Ends Normally
(PID.TID 0000.0001) 
(PID.TID 0000.0001) GAD_CHECK: #define ALLOW_GENERIC_ADVDIFF
(PID.TID 0000.0001) // =======================================================
(PID.TID 0000.0001) // Check Model config. (CONFIG_CHECK):
(PID.TID 0000.0001) // CONFIG_CHECK : Normal End
(PID.TID 0000.0001) // =======================================================
(PID.TID 0000.0001) 
(PID.TID 0000.0001)  MDS_READ_META: opening file: pickup.0185414400.meta
(PID.TID 0000.0001)  nRecords = 183 ; filePrec =  64 ; fileIter = 185414400
(PID.TID 0000.0001)     nDims =   2 , dims:
(PID.TID 0000.0001)    1: 144   1 144
(PID.TID 0000.0001)    2:  24   1  24
(PID.TID 0000.0001)     nFlds =  15 , nFl3D =  12 , fields:
(PID.TID 0000.0001)  >Uvel    < >Vvel    < >Theta   < >Salt    < >GuNm1   < >GuNm2   < >GvNm1   < >GvNm2   < >TempNm1 < >TempNm2 < >SaltNm1 < >SaltNm2 < >EtaN    < >dEtaHdt < >EtaH    <
(PID.TID 0000.0001) missingVal=  1.00000000000000E+00 ; nTimRec =   0 , timeList:
(PID.TID 0000.0001) READ_MFLDS_3D_RL: read field: "Uvel    ", #   1 in fldList, rec=   1
(PID.TID 0000.0001)  MDS_READ_FIELD: opening global file: pickup.0185414400.data
(PID.TID 0000.0001) READ_MFLDS_3D_RL: read field: "Vvel    ", #   2 in fldList, rec=   2
(PID.TID 0000.0001)  MDS_READ_FIELD: opening global file: pickup.0185414400.data
(PID.TID 0000.0001) READ_MFLDS_3D_RL: read field: "Theta   ", #   3 in fldList, rec=   3
(PID.TID 0000.0001)  MDS_READ_FIELD: opening global file: pickup.0185414400.data
(PID.TID 0000.0001) READ_MFLDS_3D_RL: read field: "Salt    ", #   4 in fldList, rec=   4
(PID.TID 0000.0001)  MDS_READ_FIELD: opening global file: pickup.0185414400.data
(PID.TID 0000.0001) READ_MFLDS_3D_RL: read field: "GuNm1   ", #   5 in fldList, rec=   5
(PID.TID 0000.0001)  MDS_READ_FIELD: opening global file: pickup.0185414400.data
(PID.TID 0000.0001) READ_MFLDS_3D_RL: read field: "GuNm2   ", #   6 in fldList, rec=   6
(PID.TID 0000.0001)  MDS_READ_FIELD: opening global file: pickup.0185414400.data
(PID.TID 0000.0001) READ_MFLDS_3D_RL: read field: "GvNm1   ", #   7 in fldList, rec=   7
(PID.TID 0000.0001)  MDS_READ_FIELD: opening global file: pickup.0185414400.data
(PID.TID 0000.0001) READ_MFLDS_3D_RL: read field: "GvNm2   ", #   8 in fldList, rec=   8
(PID.TID 0000.0001)  MDS_READ_FIELD: opening global file: pickup.0185414400.data
(PID.TID 0000.0001) READ_MFLDS_3D_RL: read field: "TempNm1 ", #   9 in fldList, rec=   9
(PID.TID 0000.0001)  MDS_READ_FIELD: opening global file: pickup.0185414400.data
(PID.TID 0000.0001) READ_MFLDS_3D_RL: read field: "TempNm2 ", #  10 in fldList, rec=  10
(PID.TID 0000.0001)  MDS_READ_FIELD: opening global file: pickup.0185414400.data
(PID.TID 0000.0001) READ_MFLDS_3D_RL: read field: "SaltNm1 ", #  11 in fldList, rec=  11
(PID.TID 0000.0001)  MDS_READ_FIELD: opening global file: pickup.0185414400.data
(PID.TID 0000.0001) READ_MFLDS_3D_RL: read field: "SaltNm2 ", #  12 in fldList, rec=  12
(PID.TID 0000.0001)  MDS_READ_FIELD: opening global file: pickup.0185414400.data
(PID.TID 0000.0001) READ_MFLDS_3D_RL: read field: "EtaN    ", #  13 in fldList, rec= 181
(PID.TID 0000.0001)  MDS_READ_FIELD: opening global file: pickup.0185414400.data
(PID.TID 0000.0001) READ_MFLDS_3D_RL: read field: "dEtaHdt ", #  14 in fldList, rec= 182
(PID.TID 0000.0001)  MDS_READ_FIELD: opening global file: pickup.0185414400.data
(PID.TID 0000.0001) READ_MFLDS_3D_RL: read field: "EtaH    ", #  15 in fldList, rec= 183
(PID.TID 0000.0001)  MDS_READ_FIELD: opening global file: pickup.0185414400.data
(PID.TID 0000.0001) READ_MFLDS_CHECK: - normal end ; reset MFLDS file-name: pickup.0185414400
(PID.TID 0000.0001)  write diagnostics summary to file ioUnit:      6
Iter.Nb: 185414400 ; Time(s):  6.6749184000000E+11
------------------------------------------------------------------------
2D/3D diagnostics: Number of lists:     0
------------------------------------------------------------------------
Global & Regional Statistics diagnostics: Number of lists:     1
------------------------------------------------------------------------
listId=   1 ; file name: cplStDiag
 nFlds, nActive,       freq     &     phase        |                    
   10  |   10  |     -3600.000000         0.000000 |
 Regions:   0
 diag# | name   |   ipt  |  iMate |    Volume   |   mate-Vol. |         
   300 |CPL_SLPr|      1 |      0 | 0.00000E+00 |
   301 |CPL_Qnet|      2 |      0 | 0.00000E+00 |
   302 |CPL_Qsw |      3 |      0 | 0.00000E+00 |
   303 |CPL_tauX|      4 |      0 | 0.00000E+00 |
   304 |CPL_tauY|      5 |      0 | 0.00000E+00 |
   306 |CPL_sFlx|      6 |      0 | 0.00000E+00 |
   307 |CPL_iceM|      7 |      0 | 0.00000E+00 |
   309 |CPL_aCO2|      8 |      0 | 0.00000E+00 |
   310 |CPL_wSpd|      9 |      0 | 0.00000E+00 |
   311 |CPL_icFr|     10 |      0 | 0.00000E+00 |
------------------------------------------------------------------------
(PID.TID 0000.0001)  MDS_READ_META: opening file: pickup_ptracers.0185414400.meta
(PID.TID 0000.0001)  nRecords =   5 ; filePrec =  64 ; fileIter = 185414400
(PID.TID 0000.0001)     nDims =   3 , dims:
(PID.TID 0000.0001)    1: 144   1 144
(PID.TID 0000.0001)    2:  24   1  24
(PID.TID 0000.0001)    3:  15   1  15
(PID.TID 0000.0001)     nFlds =   5 , nFl3D =   0 , fields:
(PID.TID 0000.0001)  >pTr01   < >pTr02   < >pTr03   < >pTr04   < >pTr05   <
(PID.TID 0000.0001) missingVal=  1.00000000000000E+00 ; nTimRec =   0 , timeList:
(PID.TID 0000.0001) READ_MFLDS_3D_RL: read field: "pTr01   ", #   1 in fldList, rec=   1
(PID.TID 0000.0001)  MDS_READ_FIELD: opening global file: pickup_ptracers.0185414400.data
(PID.TID 0000.0001) READ_MFLDS_3D_RL: read field: "pTr02   ", #   2 in fldList, rec=   2
(PID.TID 0000.0001)  MDS_READ_FIELD: opening global file: pickup_ptracers.0185414400.data
(PID.TID 0000.0001) READ_MFLDS_3D_RL: read field: "pTr03   ", #   3 in fldList, rec=   3
(PID.TID 0000.0001)  MDS_READ_FIELD: opening global file: pickup_ptracers.0185414400.data
(PID.TID 0000.0001) READ_MFLDS_3D_RL: read field: "pTr04   ", #   4 in fldList, rec=   4
(PID.TID 0000.0001)  MDS_READ_FIELD: opening global file: pickup_ptracers.0185414400.data
(PID.TID 0000.0001) READ_MFLDS_3D_RL: read field: "pTr05   ", #   5 in fldList, rec=   5
(PID.TID 0000.0001)  MDS_READ_FIELD: opening global file: pickup_ptracers.0185414400.data
(PID.TID 0000.0001) READ_MFLDS_CHECK: - normal end ; reset MFLDS file-name: pickup_ptracers.0185414400
 DIC_SURFFORCING_INIT, it= 185414400 : Reading new data, i0,i1=   12    1
(PID.TID 0000.0001)  MDS_READ_FIELD: opening global file: pickup_dic.0185414400.data
(PID.TID 0000.0001)  MDS_READ_FIELD: opening global file: pickup_cpl.0185414400.data
(PID.TID 0000.0001) // =======================================================
(PID.TID 0000.0001) // Model current state
(PID.TID 0000.0001) // =======================================================
(PID.TID 0000.0001) 
(PID.TID 0000.0001) // =======================================================
(PID.TID 0000.0001) // Begin MONITOR dynamic field statistics
(PID.TID 0000.0001) // =======================================================
(PID.TID 0000.0001) %MON time_tsnumber                =             185414400
(PID.TID 0000.0001) %MON time_secondsf                =   6.6749184000000E+11
(PID.TID 0000.0001) %MON dynstat_eta_max              =   1.6842813014810E+00
(PID.TID 0000.0001) %MON dynstat_eta_min              =  -2.1719304002901E+01
(PID.TID 0000.0001) %MON dynstat_eta_mean             =  -6.9465136592678E-01
(PID.TID 0000.0001) %MON dynstat_eta_sd               =   3.9275972811221E+00
(PID.TID 0000.0001) %MON dynstat_eta_del2             =   5.9908713024053E-03
(PID.TID 0000.0001) %MON dynstat_uvel_max             =   6.1399304150674E-01
(PID.TID 0000.0001) %MON dynstat_uvel_min             =  -5.2951333393970E-01
(PID.TID 0000.0001) %MON dynstat_uvel_mean            =   2.4712924541342E-03
(PID.TID 0000.0001) %MON dynstat_uvel_sd              =   2.5146789132209E-02
(PID.TID 0000.0001) %MON dynstat_uvel_del2            =   1.6580259846257E-04
(PID.TID 0000.0001) %MON dynstat_vvel_max             =   5.6067466016760E-01
(PID.TID 0000.0001) %MON dynstat_vvel_min             =  -4.8339380629376E-01
(PID.TID 0000.0001) %MON dynstat_vvel_mean            =   2.4475645576331E-03
(PID.TID 0000.0001) %MON dynstat_vvel_sd              =   2.7152465738437E-02
(PID.TID 0000.0001) %MON dynstat_vvel_del2            =   1.6062820573905E-04
(PID.TID 0000.0001) %MON dynstat_wvel_max             =   9.6373295054472E-05
(PID.TID 0000.0001) %MON dynstat_wvel_min             =  -7.2507712221003E-05
(PID.TID 0000.0001) %MON dynstat_wvel_mean            =  -5.1779253676427E-09
(PID.TID 0000.0001) %MON dynstat_wvel_sd              =   5.6729760203989E-06
(PID.TID 0000.0001) %MON dynstat_wvel_del2            =   7.2722674289619E-08
(PID.TID 0000.0001) %MON dynstat_theta_max            =   3.2228449824639E+01
(PID.TID 0000.0001) %MON dynstat_theta_min            =  -1.7133270674805E+00
(PID.TID 0000.0001) %MON dynstat_theta_mean           =   9.0572870319126E+00
(PID.TID 0000.0001) %MON dynstat_theta_sd             =   4.5403769727396E+00
(PID.TID 0000.0001) %MON dynstat_theta_del2           =   4.3777388648204E-03
(PID.TID 0000.0001) %MON dynstat_salt_max             =   3.7499545042142E+01
(PID.TID 0000.0001) %MON dynstat_salt_min             =   3.0224755723675E+01
(PID.TID 0000.0001) %MON dynstat_salt_mean            =   3.4567001621556E+01
(PID.TID 0000.0001) %MON dynstat_salt_sd              =   4.4220306471528E-01
(PID.TID 0000.0001) %MON dynstat_salt_del2            =   1.0540160121783E-03
(PID.TID 0000.0001) %MON forcing_qnet_max             =   0.0000000000000E+00
(PID.TID 0000.0001) %MON forcing_qnet_min             =   0.0000000000000E+00
(PID.TID 0000.0001) %MON forcing_qnet_mean            =   0.0000000000000E+00
(PID.TID 0000.0001) %MON forcing_qnet_sd              =   0.0000000000000E+00
(PID.TID 0000.0001) %MON forcing_qnet_del2            =   0.0000000000000E+00
(PID.TID 0000.0001) %MON forcing_qsw_max              =   0.0000000000000E+00
(PID.TID 0000.0001) %MON forcing_qsw_min              =   0.0000000000000E+00
(PID.TID 0000.0001) %MON forcing_qsw_mean             =   0.0000000000000E+00
(PID.TID 0000.0001) %MON forcing_qsw_sd               =   0.0000000000000E+00
(PID.TID 0000.0001) %MON forcing_qsw_del2             =   0.0000000000000E+00
(PID.TID 0000.0001) %MON forcing_empmr_max            =   0.0000000000000E+00
(PID.TID 0000.0001) %MON forcing_empmr_min            =   0.0000000000000E+00
(PID.TID 0000.0001) %MON forcing_empmr_mean           =   0.0000000000000E+00
(PID.TID 0000.0001) %MON forcing_empmr_sd             =   0.0000000000000E+00
(PID.TID 0000.0001) %MON forcing_empmr_del2           =   0.0000000000000E+00
(PID.TID 0000.0001) %MON forcing_fu_max               =   0.0000000000000E+00
(PID.TID 0000.0001) %MON forcing_fu_min               =   0.0000000000000E+00
(PID.TID 0000.0001) %MON forcing_fu_mean              =   0.0000000000000E+00
(PID.TID 0000.0001) %MON forcing_fu_sd                =   0.0000000000000E+00
(PID.TID 0000.0001) %MON forcing_fu_del2              =   0.0000000000000E+00
(PID.TID 0000.0001) %MON forcing_fv_max               =   0.0000000000000E+00
(PID.TID 0000.0001) %MON forcing_fv_min               =   0.0000000000000E+00
(PID.TID 0000.0001) %MON forcing_fv_mean              =   0.0000000000000E+00
(PID.TID 0000.0001) %MON forcing_fv_sd                =   0.0000000000000E+00
(PID.TID 0000.0001) %MON forcing_fv_del2              =   0.0000000000000E+00
(PID.TID 0000.0001) %MON trAdv_CFL_u_max              =   0.0000000000000E+00
(PID.TID 0000.0001) %MON trAdv_CFL_v_max              =   0.0000000000000E+00
(PID.TID 0000.0001) %MON trAdv_CFL_w_max              =   0.0000000000000E+00
(PID.TID 0000.0001) %MON advcfl_uvel_max              =   9.2254281339399E-03
(PID.TID 0000.0001) %MON advcfl_vvel_max              =   8.4864775136672E-03
(PID.TID 0000.0001) %MON advcfl_wvel_max              =   9.3922837123007E-03
(PID.TID 0000.0001) %MON advcfl_W_hf_max              =   1.0953239673913E-02
(PID.TID 0000.0001) %MON pe_b_mean                    =   2.6016521548043E-02
(PID.TID 0000.0001) %MON ke_max                       =   1.7867130763240E-01
(PID.TID 0000.0001) %MON ke_mean                      =   6.8249872736340E-04
(PID.TID 0000.0001) %MON ke_vol                       =   1.4948939285847E+18
(PID.TID 0000.0001) %MON vort_r_min                   =  -3.4923915923167E-06
(PID.TID 0000.0001) %MON vort_r_max                   =   2.7271341495441E-06
(PID.TID 0000.0001) %MON vort_a_mean                  =  -5.3086686024808E-08
(PID.TID 0000.0001) %MON vort_a_sd                    =   8.4173718028498E-05
(PID.TID 0000.0001) %MON vort_p_mean                  =  -5.4952217187169E-08
(PID.TID 0000.0001) %MON vort_p_sd                    =   9.2000883022678E-05
(PID.TID 0000.0001) %MON surfExpan_theta_mean         =   9.6079522405960E-08
(PID.TID 0000.0001) %MON surfExpan_salt_mean          =   4.2615643592371E-08
(PID.TID 0000.0001) // =======================================================
(PID.TID 0000.0001) // End MONITOR dynamic field statistics
(PID.TID 0000.0001) // =======================================================
(PID.TID 0000.0001) // =======================================================
(PID.TID 0000.0001) // Begin MONITOR ptracer field statistics
(PID.TID 0000.0001) // =======================================================
(PID.TID 0000.0001) %MON trcstat_ptracer01_max        =   2.4559238670380E+00
(PID.TID 0000.0001) %MON trcstat_ptracer01_min        =   1.8039229782057E+00
(PID.TID 0000.0001) %MON trcstat_ptracer01_mean       =   2.2467074135998E+00
(PID.TID 0000.0001) %MON trcstat_ptracer01_sd         =   1.2424051954872E-01
(PID.TID 0000.0001) %MON trcstat_ptracer01_del2       =   5.3354967872256E-05
(PID.TID 0000.0001) %MON trcstat_ptracer02_max        =   2.5263680825600E+00
(PID.TID 0000.0001) %MON trcstat_ptracer02_min        =   2.0334457069751E+00
(PID.TID 0000.0001) %MON trcstat_ptracer02_mean       =   2.3606271660665E+00
(PID.TID 0000.0001) %MON trcstat_ptracer02_sd         =   6.7598008464520E-02
(PID.TID 0000.0001) %MON trcstat_ptracer02_del2       =   3.7319414776906E-05
(PID.TID 0000.0001) %MON trcstat_ptracer03_max        =   3.3820824237809E-03
(PID.TID 0000.0001) %MON trcstat_ptracer03_min        =   4.8024054965745E-05
(PID.TID 0000.0001) %MON trcstat_ptracer03_mean       =   2.1949930259735E-03
(PID.TID 0000.0001) %MON trcstat_ptracer03_sd         =   7.1471773174846E-04
(PID.TID 0000.0001) %MON trcstat_ptracer03_del2       =   3.7600910197367E-07
(PID.TID 0000.0001) %MON trcstat_ptracer04_max        =   2.8475912682467E-04
(PID.TID 0000.0001) %MON trcstat_ptracer04_min        =   3.2929199895534E-34
(PID.TID 0000.0001) %MON trcstat_ptracer04_mean       =   5.5093083485118E-06
(PID.TID 0000.0001) %MON trcstat_ptracer04_sd         =   2.3207002676318E-05
(PID.TID 0000.0001) %MON trcstat_ptracer04_del2       =   4.3426473405028E-08
(PID.TID 0000.0001) %MON trcstat_ptracer05_max        =   3.7157578901614E-01
(PID.TID 0000.0001) %MON trcstat_ptracer05_min        =  -6.7200411450380E-04
(PID.TID 0000.0001) %MON trcstat_ptracer05_mean       =   1.1079713368802E-01
(PID.TID 0000.0001) %MON trcstat_ptracer05_sd         =   7.7757796987088E-02
(PID.TID 0000.0001) %MON trcstat_ptracer05_del2       =   4.0378074484395E-05
(PID.TID 0000.0001) // =======================================================
(PID.TID 0000.0001) // End MONITOR ptracer field statistics
(PID.TID 0000.0001) // =======================================================
 EXTERNAL_FIELDS_LOAD, 185414400 : iP,iLd,i0,i1=   12    0   12    1 ; Wght=  0.5000000000  0.5000000000
 EXTERNAL_FIELDS_LOAD, it= 185414400 : Reading new data, i0,i1=   12    1 (prev=   12    0 )
 DIC_FIELDS_LOAD, 185414400 : iP,iLd,i0,i1=   12    0   12    1 ; Wght=  0.5000000000  0.5000000000
 DIC_FIELDS_LOAD, it= 185414400 : Reading new data, i0,i1=   12    1 (prev=   12    0 )
(PID.TID 0000.0001) SOLVE_FOR_PRESSURE: putPmEinXvector =    F
 cg2d: Sum(rhs),rhsMax =   7.70832145520892E+01  1.14650006824597E+02
(PID.TID 0000.0001)      cg2d_init_res =   2.62148263586575E-02
(PID.TID 0000.0001)      cg2d_iters(min,last) =      -1      21
(PID.TID 0000.0001)      cg2d_last_res =   5.42460698863125E-10
(PID.TID 0000.0001) // =======================================================
(PID.TID 0000.0001) // Begin MONITOR dynamic field statistics
(PID.TID 0000.0001) // =======================================================
(PID.TID 0000.0001) %MON time_tsnumber                =             185414401
(PID.TID 0000.0001) %MON time_secondsf                =   6.6749184360000E+11
(PID.TID 0000.0001) %MON dynstat_eta_max              =   1.6849266759662E+00
(PID.TID 0000.0001) %MON dynstat_eta_min              =  -2.1719453670243E+01
(PID.TID 0000.0001) %MON dynstat_eta_mean             =  -6.9461681900791E-01
(PID.TID 0000.0001) %MON dynstat_eta_sd               =   3.9274489066944E+00
(PID.TID 0000.0001) %MON dynstat_eta_del2             =   5.9893518394260E-03
(PID.TID 0000.0001) %MON dynstat_uvel_max             =   5.4249935770479E-01
(PID.TID 0000.0001) %MON dynstat_uvel_min             =  -5.2980023859472E-01
(PID.TID 0000.0001) %MON dynstat_uvel_mean            =   2.4783656985314E-03
(PID.TID 0000.0001) %MON dynstat_uvel_sd              =   2.5132110372809E-02
(PID.TID 0000.0001) %MON dynstat_uvel_del2            =   1.6543698991730E-04
(PID.TID 0000.0001) %MON dynstat_vvel_max             =   5.2623600338548E-01
(PID.TID 0000.0001) %MON dynstat_vvel_min             =  -5.0926110844767E-01
(PID.TID 0000.0001) %MON dynstat_vvel_mean            =   2.4502036942719E-03
(PID.TID 0000.0001) %MON dynstat_vvel_sd              =   2.7144983554813E-02
(PID.TID 0000.0001) %MON dynstat_vvel_del2            =   1.6016101494693E-04
(PID.TID 0000.0001) %MON dynstat_wvel_max             =   8.3852429632019E-05
(PID.TID 0000.0001) %MON dynstat_wvel_min             =  -8.5853864371690E-05
(PID.TID 0000.0001) %MON dynstat_wvel_mean            =  -5.1409105463244E-09
(PID.TID 0000.0001) %MON dynstat_wvel_sd              =   5.6666817459238E-06
(PID.TID 0000.0001) %MON dynstat_wvel_del2            =   7.2499103526876E-08
(PID.TID 0000.0001) %MON dynstat_theta_max            =   3.2229416130440E+01
(PID.TID 0000.0001) %MON dynstat_theta_min            =  -1.7133105888677E+00
(PID.TID 0000.0001) %MON dynstat_theta_mean           =   9.0572840930672E+00
(PID.TID 0000.0001) %MON dynstat_theta_sd             =   4.5403689133977E+00
(PID.TID 0000.0001) %MON dynstat_theta_del2           =   4.3775491382878E-03
(PID.TID 0000.0001) %MON dynstat_salt_max             =   3.7499460593563E+01
(PID.TID 0000.0001) %MON dynstat_salt_min             =   3.0225984727600E+01
(PID.TID 0000.0001) %MON dynstat_salt_mean            =   3.4567001251615E+01
(PID.TID 0000.0001) %MON dynstat_salt_sd              =   4.4220485911550E-01
(PID.TID 0000.0001) %MON dynstat_salt_del2            =   1.0540057924119E-03
(PID.TID 0000.0001) %MON forcing_qnet_max             =   6.2333280839943E+02
(PID.TID 0000.0001) %MON forcing_qnet_min             =  -3.5234058452349E+02
(PID.TID 0000.0001) %MON forcing_qnet_mean            =   9.7023891010804E+00
(PID.TID 0000.0001) %MON forcing_qnet_sd              =   1.2185261834582E+02
(PID.TID 0000.0001) %MON forcing_qnet_del2            =   2.2041284500250E+00
(PID.TID 0000.0001) %MON forcing_qsw_max              =   0.0000000000000E+00
(PID.TID 0000.0001) %MON forcing_qsw_min              =  -4.1435788441679E+02
(PID.TID 0000.0001) %MON forcing_qsw_mean             =  -1.5669030789878E+02
(PID.TID 0000.0001) %MON forcing_qsw_sd               =   1.1093249640120E+02
(PID.TID 0000.0001) %MON forcing_qsw_del2             =   1.7623915340746E+00
(PID.TID 0000.0001) %MON forcing_empmr_max            =   1.9153628162934E-04
(PID.TID 0000.0001) %MON forcing_empmr_min            =  -7.0623858250975E-04
(PID.TID 0000.0001) %MON forcing_empmr_mean           =  -9.8842573437332E-06
(PID.TID 0000.0001) %MON forcing_empmr_sd             =   8.2494457518186E-05
(PID.TID 0000.0001) %MON forcing_empmr_del2           =   2.8741366678445E-06
(PID.TID 0000.0001) %MON forcing_fu_max               =   5.9899457856909E-01
(PID.TID 0000.0001) %MON forcing_fu_min               =  -3.8721264338396E-01
(PID.TID 0000.0001) %MON forcing_fu_mean              =  -3.9708500702167E-03
(PID.TID 0000.0001) %MON forcing_fu_sd                =   7.9523806710244E-02
(PID.TID 0000.0001) %MON forcing_fu_del2              =   1.2562785749418E-03
(PID.TID 0000.0001) %MON forcing_fv_max               =   3.8436208066867E-01
(PID.TID 0000.0001) %MON forcing_fv_min               =  -4.3534008880543E-01
(PID.TID 0000.0001) %MON forcing_fv_mean              =  -6.1614789198984E-03
(PID.TID 0000.0001) %MON forcing_fv_sd                =   6.8672118289533E-02
(PID.TID 0000.0001) %MON forcing_fv_del2              =   1.0485476129786E-03
(PID.TID 0000.0001) %MON trAdv_CFL_u_max              =   8.8570066151987E-03
(PID.TID 0000.0001) %MON trAdv_CFL_v_max              =   8.3506769982867E-03
(PID.TID 0000.0001) %MON trAdv_CFL_w_max              =   9.5647612028044E-03
(PID.TID 0000.0001) %MON advcfl_uvel_max              =   8.1512142628399E-03
(PID.TID 0000.0001) %MON advcfl_vvel_max              =   8.9406047184643E-03
(PID.TID 0000.0001) %MON advcfl_wvel_max              =   8.3625515588054E-03
(PID.TID 0000.0001) %MON advcfl_W_hf_max              =   9.7523918995809E-03
(PID.TID 0000.0001) %MON pe_b_mean                    =  -1.5810376044150E-02
(PID.TID 0000.0001) %MON ke_max                       =   1.6389383001163E-01
(PID.TID 0000.0001) %MON ke_mean                      =   6.8195745377858E-04
(PID.TID 0000.0001) %MON ke_vol                       =   1.4948939459273E+18
(PID.TID 0000.0001) %MON vort_r_min                   =  -3.6098082259398E-06
(PID.TID 0000.0001) %MON vort_r_max                   =   2.2087734001354E-06
(PID.TID 0000.0001) %MON vort_a_mean                  =  -5.3086686024981E-08
(PID.TID 0000.0001) %MON vort_a_sd                    =   8.4173719651477E-05
(PID.TID 0000.0001) %MON vort_p_mean                  =  -5.4952216509777E-08
(PID.TID 0000.0001) %MON vort_p_sd                    =   9.2000887658934E-05
(PID.TID 0000.0001) %MON surfExpan_theta_mean         =   1.0019259903549E-07
(PID.TID 0000.0001) %MON surfExpan_salt_mean          =   4.3053589333932E-08
(PID.TID 0000.0001) // =======================================================
(PID.TID 0000.0001) // End MONITOR dynamic field statistics
(PID.TID 0000.0001) // =======================================================
(PID.TID 0000.0001) // =======================================================
(PID.TID 0000.0001) // Begin MONITOR ptracer field statistics
(PID.TID 0000.0001) // =======================================================
(PID.TID 0000.0001) %MON trcstat_ptracer01_max        =   2.4559238406341E+00
(PID.TID 0000.0001) %MON trcstat_ptracer01_min        =   1.8039258214603E+00
(PID.TID 0000.0001) %MON trcstat_ptracer01_mean       =   2.2467074004855E+00
(PID.TID 0000.0001) %MON trcstat_ptracer01_sd         =   1.2424052798307E-01
(PID.TID 0000.0001) %MON trcstat_ptracer01_del2       =   5.3359512756063E-05
(PID.TID 0000.0001) %MON trcstat_ptracer02_max        =   2.5263680604814E+00
(PID.TID 0000.0001) %MON trcstat_ptracer02_min        =   2.0334472580504E+00
(PID.TID 0000.0001) %MON trcstat_ptracer02_mean       =   2.3606271374016E+00
(PID.TID 0000.0001) %MON trcstat_ptracer02_sd         =   6.7598090919980E-02
(PID.TID 0000.0001) %MON trcstat_ptracer02_del2       =   3.7320417800332E-05
(PID.TID 0000.0001) %MON trcstat_ptracer03_max        =   3.3820823820556E-03
(PID.TID 0000.0001) %MON trcstat_ptracer03_min        =   4.8024325576403E-05
(PID.TID 0000.0001) %MON trcstat_ptracer03_mean       =   2.1949930943657E-03
(PID.TID 0000.0001) %MON trcstat_ptracer03_sd         =   7.1471740942799E-04
(PID.TID 0000.0001) %MON trcstat_ptracer03_del2       =   3.7602082549221E-07
(PID.TID 0000.0001) %MON trcstat_ptracer04_max        =   2.8476614461798E-04
(PID.TID 0000.0001) %MON trcstat_ptracer04_min        =   3.1947054321846E-34
(PID.TID 0000.0001) %MON trcstat_ptracer04_mean       =   5.5092150142507E-06
(PID.TID 0000.0001) %MON trcstat_ptracer04_sd         =   2.3206625979963E-05
(PID.TID 0000.0001) %MON trcstat_ptracer04_del2       =   4.3435693651123E-08
(PID.TID 0000.0001) %MON trcstat_ptracer05_max        =   3.7161104786729E-01
(PID.TID 0000.0001) %MON trcstat_ptracer05_min        =  -6.7188044124886E-04
(PID.TID 0000.0001) %MON trcstat_ptracer05_mean       =   1.1079714093327E-01
(PID.TID 0000.0001) %MON trcstat_ptracer05_sd         =   7.7757797195484E-02
(PID.TID 0000.0001) %MON trcstat_ptracer05_del2       =   4.0382138134296E-05
(PID.TID 0000.0001) // =======================================================
(PID.TID 0000.0001) // End MONITOR ptracer field statistics
(PID.TID 0000.0001) // =======================================================
 Compute Stats, Diag. #    300  CPL_SLPr  vol(   0 ): 4.984E+14  Parms: SM      M1      
 Compute Stats, Diag. #    301  CPL_Qnet  vol(   0 ): 4.984E+14  Parms: SM      M1      
 Compute Stats, Diag. #    302  CPL_Qsw   vol(   0 ): 4.984E+14  Parms: SM      M1      
 Compute Stats, Diag. #    303  CPL_tauX  vol(   0 ): 4.984E+14  Parms: UM      M1      
 Compute Stats, Diag. #    304  CPL_tauY  vol(   0 ): 4.984E+14  Parms: UM      M1      
 Compute Stats, Diag. #    306  CPL_sFlx  vol(   0 ): 4.984E+14  Parms: SM      M1      
 Compute Stats, Diag. #    307  CPL_iceM  vol(   0 ): 4.984E+14  Parms: SM      M1      
 Compute Stats, Diag. #    309  CPL_aCO2  vol(   0 ): 4.984E+14  Parms: SM      M1      
 Compute Stats, Diag. #    310  CPL_wSpd  vol(   0 ): 4.984E+14  Parms: SM      M1      
 Compute Stats, Diag. #    311  CPL_icFr  vol(   0 ): 4.984E+14  Parms: SM P    M1      
 EXTERNAL_FIELDS_LOAD, 185414401 : iP,iLd,i0,i1=   12    1   12    1 ; Wght=  0.4986111111  0.5013888889
 DIC_FIELDS_LOAD, 185414401 : iP,iLd,i0,i1=   12    1   12    1 ; Wght=  0.4986111111  0.5013888889
 cg2d: Sum(rhs),rhsMax =   7.70767835104311E+01  1.14654032640543E+02
(PID.TID 0000.0001)      cg2d_init_res =   2.01582168478824E-02
(PID.TID 0000.0001)      cg2d_iters(min,last) =      -1      21
(PID.TID 0000.0001)      cg2d_last_res =   5.25620281681235E-10
(PID.TID 0000.0001) // =======================================================
(PID.TID 0000.0001) // Begin MONITOR dynamic field statistics
(PID.TID 0000.0001) // =======================================================
(PID.TID 0000.0001) %MON time_tsnumber                =             185414402
(PID.TID 0000.0001) %MON time_secondsf                =   6.6749184720000E+11
(PID.TID 0000.0001) %MON dynstat_eta_max              =   1.6852195328371E+00
(PID.TID 0000.0001) %MON dynstat_eta_min              =  -2.1719488604155E+01
(PID.TID 0000.0001) %MON dynstat_eta_mean             =  -6.9458325593865E-01
(PID.TID 0000.0001) %MON dynstat_eta_sd               =   3.9273040725673E+00
(PID.TID 0000.0001) %MON dynstat_eta_del2             =   5.9879687562373E-03
(PID.TID 0000.0001) %MON dynstat_uvel_max             =   5.4377574555283E-01
(PID.TID 0000.0001) %MON dynstat_uvel_min             =  -5.2990686218673E-01
(PID.TID 0000.0001) %MON dynstat_uvel_mean            =   2.4845127509113E-03
(PID.TID 0000.0001) %MON dynstat_uvel_sd              =   2.5114695660059E-02
(PID.TID 0000.0001) %MON dynstat_uvel_del2            =   1.6495601936348E-04
(PID.TID 0000.0001) %MON dynstat_vvel_max             =   4.7330845626272E-01
(PID.TID 0000.0001) %MON dynstat_vvel_min             =  -5.0439461324831E-01
(PID.TID 0000.0001) %MON dynstat_vvel_mean            =   2.4526537109020E-03
(PID.TID 0000.0001) %MON dynstat_vvel_sd              =   2.7140625602850E-02
(PID.TID 0000.0001) %MON dynstat_vvel_del2            =   1.5969471361959E-04
(PID.TID 0000.0001) %MON dynstat_wvel_max             =   7.7907118300758E-05
(PID.TID 0000.0001) %MON dynstat_wvel_min             =  -9.8126431453489E-05
(PID.TID 0000.0001) %MON dynstat_wvel_mean            =  -4.9945043535713E-09
(PID.TID 0000.0001) %MON dynstat_wvel_sd              =   5.6587869318069E-06
(PID.TID 0000.0001) %MON dynstat_wvel_del2            =   7.2209200068494E-08
(PID.TID 0000.0001) %MON dynstat_theta_max            =   3.2230393557063E+01
(PID.TID 0000.0001) %MON dynstat_theta_min            =  -1.7132942776885E+00
(PID.TID 0000.0001) %MON dynstat_theta_mean           =   9.0572812236112E+00
(PID.TID 0000.0001) %MON dynstat_theta_sd             =   4.5403610910228E+00
(PID.TID 0000.0001) %MON dynstat_theta_del2           =   4.3773605550125E-03
(PID.TID 0000.0001) %MON dynstat_salt_max             =   3.7499373737966E+01
(PID.TID 0000.0001) %MON dynstat_salt_min             =   3.0227253662337E+01
(PID.TID 0000.0001) %MON dynstat_salt_mean            =   3.4567000892926E+01
(PID.TID 0000.0001) %MON dynstat_salt_sd              =   4.4220664088984E-01
(PID.TID 0000.0001) %MON dynstat_salt_del2            =   1.0539882965367E-03
(PID.TID 0000.0001) %MON forcing_qnet_max             =   6.2575770552746E+02
(PID.TID 0000.0001) %MON forcing_qnet_min             =  -3.5233741679151E+02
(PID.TID 0000.0001) %MON forcing_qnet_mean            =   9.4819401810427E+00
(PID.TID 0000.0001) %MON forcing_qnet_sd              =   1.2171590223608E+02
(PID.TID 0000.0001) %MON forcing_qnet_del2            =   2.2036822592741E+00
(PID.TID 0000.0001) %MON forcing_qsw_max              =   0.0000000000000E+00
(PID.TID 0000.0001) %MON forcing_qsw_min              =  -4.1339989472060E+02
(PID.TID 0000.0001) %MON forcing_qsw_mean             =  -1.5682817321615E+02
(PID.TID 0000.0001) %MON forcing_qsw_sd               =   1.1108203206623E+02
(PID.TID 0000.0001) %MON forcing_qsw_del2             =   1.7756094146602E+00
(PID.TID 0000.0001) %MON forcing_empmr_max            =   1.8510502250591E-04
(PID.TID 0000.0001) %MON forcing_empmr_min            =  -7.3675730311110E-04
(PID.TID 0000.0001) %MON forcing_empmr_mean           =  -9.6027670371332E-06
(PID.TID 0000.0001) %MON forcing_empmr_sd             =   8.2121435977566E-05
(PID.TID 0000.0001) %MON forcing_empmr_del2           =   2.8590961908195E-06
(PID.TID 0000.0001) %MON forcing_fu_max               =   6.2078673340245E-01
(PID.TID 0000.0001) %MON forcing_fu_min               =  -3.8784392450975E-01
(PID.TID 0000.0001) %MON forcing_fu_mean              =  -3.9689097229433E-03
(PID.TID 0000.0001) %MON forcing_fu_sd                =   7.9421743830464E-02
(PID.TID 0000.0001) %MON forcing_fu_del2              =   1.2489004966341E-03
(PID.TID 0000.0001) %MON forcing_fv_max               =   3.8798436804427E-01
(PID.TID 0000.0001) %MON forcing_fv_min               =  -4.2921106407786E-01
(PID.TID 0000.0001) %MON forcing_fv_mean              =  -6.1863385338509E-03
(PID.TID 0000.0001) %MON forcing_fv_sd                =   6.8784276656795E-02
(PID.TID 0000.0001) %MON forcing_fv_del2              =   1.0503713926568E-03
(PID.TID 0000.0001) %MON trAdv_CFL_u_max              =   7.4157421239225E-03
(PID.TID 0000.0001) %MON trAdv_CFL_v_max              =   8.4677715327753E-03
(PID.TID 0000.0001) %MON trAdv_CFL_w_max              =   1.0820643711233E-02
(PID.TID 0000.0001) %MON advcfl_uvel_max              =   8.5479973599202E-03
(PID.TID 0000.0001) %MON advcfl_vvel_max              =   8.8551683691730E-03
(PID.TID 0000.0001) %MON advcfl_wvel_max              =   9.2699532237852E-03
(PID.TID 0000.0001) %MON advcfl_W_hf_max              =   1.0810877318264E-02
(PID.TID 0000.0001) %MON pe_b_mean                    =  -1.5809901028637E-02
(PID.TID 0000.0001) %MON ke_max                       =   1.5688735100922E-01
(PID.TID 0000.0001) %MON ke_mean                      =   6.8142897983122E-04
(PID.TID 0000.0001) %MON ke_vol                       =   1.4948939631459E+18
(PID.TID 0000.0001) %MON vort_r_min                   =  -3.5570139344559E-06
(PID.TID 0000.0001) %MON vort_r_max                   =   1.9575870535001E-06
(PID.TID 0000.0001) %MON vort_a_mean                  =  -5.3086686024820E-08
(PID.TID 0000.0001) %MON vort_a_sd                    =   8.4173720998524E-05
(PID.TID 0000.0001) %MON vort_p_mean                  =  -5.4952215829543E-08
(PID.TID 0000.0001) %MON vort_p_sd                    =   9.2000891437322E-05
(PID.TID 0000.0001) %MON surfExpan_theta_mean         =   1.0566470304367E-07
(PID.TID 0000.0001) %MON surfExpan_salt_mean          =   4.3204613137405E-08
(PID.TID 0000.0001) // =======================================================
(PID.TID 0000.0001) // End MONITOR dynamic field statistics
(PID.TID 0000.0001) // =======================================================
(PID.TID 0000.0001) // =======================================================
(PID.TID 0000.0001) // Begin MONITOR ptracer field statistics
(PID.TID 0000.0001) // =======================================================
(PID.TID 0000.0001) %MON trcstat_ptracer01_max        =   2.4559238146902E+00
(PID.TID 0000.0001) %MON trcstat_ptracer01_min        =   1.8039284493197E+00
(PID.TID 0000.0001) %MON trcstat_ptracer01_mean       =   2.2467073879353E+00
(PID.TID 0000.0001) %MON trcstat_ptracer01_sd         =   1.2424053462674E-01
(PID.TID 0000.0001) %MON trcstat_ptracer01_del2       =   5.3363089657939E-05
(PID.TID 0000.0001) %MON trcstat_ptracer02_max        =   2.5263680385946E+00
(PID.TID 0000.0001) %MON trcstat_ptracer02_min        =   2.0334488658901E+00
(PID.TID 0000.0001) %MON trcstat_ptracer02_mean       =   2.3606271094986E+00
(PID.TID 0000.0001) %MON trcstat_ptracer02_sd         =   6.7598171949767E-02
(PID.TID 0000.0001) %MON trcstat_ptracer02_del2       =   3.7321126536655E-05
(PID.TID 0000.0001) %MON trcstat_ptracer03_max        =   3.3820823415426E-03
(PID.TID 0000.0001) %MON trcstat_ptracer03_min        =   4.8024619389712E-05
(PID.TID 0000.0001) %MON trcstat_ptracer03_mean       =   2.1949931628141E-03
(PID.TID 0000.0001) %MON trcstat_ptracer03_sd         =   7.1471708466796E-04
(PID.TID 0000.0001) %MON trcstat_ptracer03_del2       =   3.7603608757966E-07
(PID.TID 0000.0001) %MON trcstat_ptracer04_max        =   2.8477309993227E-04
(PID.TID 0000.0001) %MON trcstat_ptracer04_min        =   3.2232249733841E-34
(PID.TID 0000.0001) %MON trcstat_ptracer04_mean       =   5.5091222578595E-06
(PID.TID 0000.0001) %MON trcstat_ptracer04_sd         =   2.3206234915687E-05
(PID.TID 0000.0001) %MON trcstat_ptracer04_del2       =   4.3457102382971E-08
(PID.TID 0000.0001) %MON trcstat_ptracer05_max        =   3.7164752319506E-01
(PID.TID 0000.0001) %MON trcstat_ptracer05_min        =  -6.7175627411532E-04
(PID.TID 0000.0001) %MON trcstat_ptracer05_mean       =   1.1079714804344E-01
(PID.TID 0000.0001) %MON trcstat_ptracer05_sd         =   7.7757797288279E-02
(PID.TID 0000.0001) %MON trcstat_ptracer05_del2       =   4.0385244657253E-05
(PID.TID 0000.0001) // =======================================================
(PID.TID 0000.0001) // End MONITOR ptracer field statistics
(PID.TID 0000.0001) // =======================================================
 Compute Stats, Diag. #    300  CPL_SLPr  vol(   0 ): 4.984E+14  Parms: SM      M1      
 Compute Stats, Diag. #    301  CPL_Qnet  vol(   0 ): 4.984E+14  Parms: SM      M1      
 Compute Stats, Diag. #    302  CPL_Qsw   vol(   0 ): 4.984E+14  Parms: SM      M1      
 Compute Stats, Diag. #    303  CPL_tauX  vol(   0 ): 4.984E+14  Parms: UM      M1      
 Compute Stats, Diag. #    304  CPL_tauY  vol(   0 ): 4.984E+14  Parms: UM      M1      
 Compute Stats, Diag. #    306  CPL_sFlx  vol(   0 ): 4.984E+14  Parms: SM      M1      
 Compute Stats, Diag. #    307  CPL_iceM  vol(   0 ): 4.984E+14  Parms: SM      M1      
 Compute Stats, Diag. #    309  CPL_aCO2  vol(   0 ): 4.984E+14  Parms: SM      M1      
 Compute Stats, Diag. #    310  CPL_wSpd  vol(   0 ): 4.984E+14  Parms: SM      M1      
 Compute Stats, Diag. #    311  CPL_icFr  vol(   0 ): 4.984E+14  Parms: SM P    M1      
 EXTERNAL_FIELDS_LOAD, 185414402 : iP,iLd,i0,i1=   12    1   12    1 ; Wght=  0.4972222222  0.5027777778
 DIC_FIELDS_LOAD, 185414402 : iP,iLd,i0,i1=   12    1   12    1 ; Wght=  0.4972222222  0.5027777778
 cg2d: Sum(rhs),rhsMax =   7.70723432308113E+01  1.14654968046748E+02
(PID.TID 0000.0001)      cg2d_init_res =   1.72794755186344E-02
(PID.TID 0000.0001)      cg2d_iters(min,last) =      -1      20
(PID.TID 0000.0001)      cg2d_last_res =   9.09120459422046E-10
(PID.TID 0000.0001) // =======================================================
(PID.TID 0000.0001) // Begin MONITOR dynamic field statistics
(PID.TID 0000.0001) // =======================================================
(PID.TID 0000.0001) %MON time_tsnumber                =             185414403
(PID.TID 0000.0001) %MON time_secondsf                =   6.6749185080000E+11
(PID.TID 0000.0001) %MON dynstat_eta_max              =   1.6851860995478E+00
(PID.TID 0000.0001) %MON dynstat_eta_min              =  -2.1719280404753E+01
(PID.TID 0000.0001) %MON dynstat_eta_mean             =  -6.9454890846229E-01
(PID.TID 0000.0001) %MON dynstat_eta_sd               =   3.9271609467825E+00
(PID.TID 0000.0001) %MON dynstat_eta_del2             =   5.9866807679926E-03
(PID.TID 0000.0001) %MON dynstat_uvel_max             =   5.4476715544583E-01
(PID.TID 0000.0001) %MON dynstat_uvel_min             =  -5.2981694926213E-01
(PID.TID 0000.0001) %MON dynstat_uvel_mean            =   2.4896235357886E-03
(PID.TID 0000.0001) %MON dynstat_uvel_sd              =   2.5094912955486E-02
(PID.TID 0000.0001) %MON dynstat_uvel_del2            =   1.6439143549283E-04
(PID.TID 0000.0001) %MON dynstat_vvel_max             =   4.5748148880900E-01
(PID.TID 0000.0001) %MON dynstat_vvel_min             =  -4.6983349384113E-01
(PID.TID 0000.0001) %MON dynstat_vvel_mean            =   2.4550453219566E-03
(PID.TID 0000.0001) %MON dynstat_vvel_sd              =   2.7139380494316E-02
(PID.TID 0000.0001) %MON dynstat_vvel_del2            =   1.5924959417985E-04
(PID.TID 0000.0001) %MON dynstat_wvel_max             =   8.1977391802111E-05
(PID.TID 0000.0001) %MON dynstat_wvel_min             =  -1.0642168575402E-04
(PID.TID 0000.0001) %MON dynstat_wvel_mean            =  -5.1112316007188E-09
(PID.TID 0000.0001) %MON dynstat_wvel_sd              =   5.6496578267022E-06
(PID.TID 0000.0001) %MON dynstat_wvel_del2            =   7.1903201386379E-08
(PID.TID 0000.0001) %MON dynstat_theta_max            =   3.2231378741184E+01
(PID.TID 0000.0001) %MON dynstat_theta_min            =  -1.7132782279585E+00
(PID.TID 0000.0001) %MON dynstat_theta_mean           =   9.0572783980273E+00
(PID.TID 0000.0001) %MON dynstat_theta_sd             =   4.5403534124239E+00
(PID.TID 0000.0001) %MON dynstat_theta_del2           =   4.3771837328448E-03
(PID.TID 0000.0001) %MON dynstat_salt_max             =   3.7499283268254E+01
(PID.TID 0000.0001) %MON dynstat_salt_min             =   3.0228596127518E+01
(PID.TID 0000.0001) %MON dynstat_salt_mean            =   3.4567000525898E+01
(PID.TID 0000.0001) %MON dynstat_salt_sd              =   4.4220843070816E-01
(PID.TID 0000.0001) %MON dynstat_salt_del2            =   1.0539808572405E-03
(PID.TID 0000.0001) %MON forcing_qnet_max             =   6.1106656084681E+02
(PID.TID 0000.0001) %MON forcing_qnet_min             =  -3.5117680032636E+02
(PID.TID 0000.0001) %MON forcing_qnet_mean            =   9.3291952373866E+00
(PID.TID 0000.0001) %MON forcing_qnet_sd              =   1.2167814499918E+02
(PID.TID 0000.0001) %MON forcing_qnet_del2            =   2.1956059756211E+00
(PID.TID 0000.0001) %MON forcing_qsw_max              =   0.0000000000000E+00
(PID.TID 0000.0001) %MON forcing_qsw_min              =  -4.1363143504797E+02
(PID.TID 0000.0001) %MON forcing_qsw_mean             =  -1.5690829734994E+02
(PID.TID 0000.0001) %MON forcing_qsw_sd               =   1.1110898243470E+02
(PID.TID 0000.0001) %MON forcing_qsw_del2             =   1.7686209831730E+00
(PID.TID 0000.0001) %MON forcing_empmr_max            =   1.8425253036255E-04
(PID.TID 0000.0001) %MON forcing_empmr_min            =  -7.6481706132857E-04
(PID.TID 0000.0001) %MON forcing_empmr_mean           =  -9.8271946243152E-06
(PID.TID 0000.0001) %MON forcing_empmr_sd             =   8.2348516479247E-05
(PID.TID 0000.0001) %MON forcing_empmr_del2           =   2.8834367814497E-06
(PID.TID 0000.0001) %MON forcing_fu_max               =   6.1666572497832E-01
(PID.TID 0000.0001) %MON forcing_fu_min               =  -3.8576560473507E-01
(PID.TID 0000.0001) %MON forcing_fu_mean              =  -3.9803060963457E-03
(PID.TID 0000.0001) %MON forcing_fu_sd                =   7.9302352924034E-02
(PID.TID 0000.0001) %MON forcing_fu_del2              =   1.2422231390628E-03
(PID.TID 0000.0001) %MON forcing_fv_max               =   3.9391772107012E-01
(PID.TID 0000.0001) %MON forcing_fv_min               =  -4.1701192406854E-01
(PID.TID 0000.0001) %MON forcing_fv_mean              =  -6.2048499882843E-03
(PID.TID 0000.0001) %MON forcing_fv_sd                =   6.8885033959142E-02
(PID.TID 0000.0001) %MON forcing_fv_del2              =   1.0530800609801E-03
(PID.TID 0000.0001) %MON trAdv_CFL_u_max              =   7.4292637579647E-03
(PID.TID 0000.0001) %MON trAdv_CFL_v_max              =   8.5568903794752E-03
(PID.TID 0000.0001) %MON trAdv_CFL_w_max              =   1.1751266367502E-02
(PID.TID 0000.0001) %MON advcfl_uvel_max              =   1.0005506408510E-02
(PID.TID 0000.0001) %MON advcfl_vvel_max              =   8.2484122236093E-03
(PID.TID 0000.0001) %MON advcfl_wvel_max              =   1.0068835232397E-02
(PID.TID 0000.0001) %MON advcfl_W_hf_max              =   1.1742552675350E-02
(PID.TID 0000.0001) %MON pe_b_mean                    =  -1.5809496729116E-02
(PID.TID 0000.0001) %MON ke_max                       =   1.4576879771938E-01
(PID.TID 0000.0001) %MON ke_mean                      =   6.8092245002170E-04
(PID.TID 0000.0001) %MON ke_vol                       =   1.4948939798742E+18
(PID.TID 0000.0001) %MON vort_r_min                   =  -3.3441910192625E-06
(PID.TID 0000.0001) %MON vort_r_max                   =   1.8565286368951E-06
(PID.TID 0000.0001) %MON vort_a_mean                  =  -5.3086686024810E-08
(PID.TID 0000.0001) %MON vort_a_sd                    =   8.4173722061834E-05
(PID.TID 0000.0001) %MON vort_p_mean                  =  -5.4952215183867E-08
(PID.TID 0000.0001) %MON vort_p_sd                    =   9.2000894835140E-05
(PID.TID 0000.0001) %MON surfExpan_theta_mean         =   1.0505874514281E-07
(PID.TID 0000.0001) %MON surfExpan_salt_mean          =   4.3518536208136E-08
(PID.TID 0000.0001) // =======================================================
(PID.TID 0000.0001) // End MONITOR dynamic field statistics
(PID.TID 0000.0001) // =======================================================
(PID.TID 0000.0001) // =======================================================
(PID.TID 0000.0001) // Begin MONITOR ptracer field statistics
(PID.TID 0000.0001) // =======================================================
(PID.TID 0000.0001) %MON trcstat_ptracer01_max        =   2.4559237891435E+00
(PID.TID 0000.0001) %MON trcstat_ptracer01_min        =   1.8039310388590E+00
(PID.TID 0000.0001) %MON trcstat_ptracer01_mean       =   2.2467073746322E+00
(PID.TID 0000.0001) %MON trcstat_ptracer01_sd         =   1.2424054236439E-01
(PID.TID 0000.0001) %MON trcstat_ptracer01_del2       =   5.3369154958956E-05
(PID.TID 0000.0001) %MON trcstat_ptracer02_max        =   2.5263680168287E+00
(PID.TID 0000.0001) %MON trcstat_ptracer02_min        =   2.0334505192054E+00
(PID.TID 0000.0001) %MON trcstat_ptracer02_mean       =   2.3606270809631E+00
(PID.TID 0000.0001) %MON trcstat_ptracer02_sd         =   6.7598253911737E-02
(PID.TID 0000.0001) %MON trcstat_ptracer02_del2       =   3.7322221921511E-05
(PID.TID 0000.0001) %MON trcstat_ptracer03_max        =   3.3820823015841E-03
(PID.TID 0000.0001) %MON trcstat_ptracer03_min        =   4.8024934892549E-05
(PID.TID 0000.0001) %MON trcstat_ptracer03_mean       =   2.1949932300509E-03
(PID.TID 0000.0001) %MON trcstat_ptracer03_sd         =   7.1471676180455E-04
(PID.TID 0000.0001) %MON trcstat_ptracer03_del2       =   3.7605786047717E-07
(PID.TID 0000.0001) %MON trcstat_ptracer04_max        =   2.8478006357132E-04
(PID.TID 0000.0001) %MON trcstat_ptracer04_min        =   3.2826513307610E-34
(PID.TID 0000.0001) %MON trcstat_ptracer04_mean       =   5.5090299418192E-06
(PID.TID 0000.0001) %MON trcstat_ptracer04_sd         =   2.3205855708351E-05
(PID.TID 0000.0001) %MON trcstat_ptracer04_del2       =   4.3485071496122E-08
(PID.TID 0000.0001) %MON trcstat_ptracer05_max        =   3.7168503816763E-01
(PID.TID 0000.0001) %MON trcstat_ptracer05_min        =  -6.7163127523704E-04
(PID.TID 0000.0001) %MON trcstat_ptracer05_mean       =   1.1079715501541E-01
(PID.TID 0000.0001) %MON trcstat_ptracer05_sd         =   7.7757797102018E-02
(PID.TID 0000.0001) %MON trcstat_ptracer05_del2       =   4.0391305505505E-05
(PID.TID 0000.0001) // =======================================================
(PID.TID 0000.0001) // End MONITOR ptracer field statistics
(PID.TID 0000.0001) // =======================================================
 Compute Stats, Diag. #    300  CPL_SLPr  vol(   0 ): 4.984E+14  Parms: SM      M1      
 Compute Stats, Diag. #    301  CPL_Qnet  vol(   0 ): 4.984E+14  Parms: SM      M1      
 Compute Stats, Diag. #    302  CPL_Qsw   vol(   0 ): 4.984E+14  Parms: SM      M1      
 Compute Stats, Diag. #    303  CPL_tauX  vol(   0 ): 4.984E+14  Parms: UM      M1      
 Compute Stats, Diag. #    304  CPL_tauY  vol(   0 ): 4.984E+14  Parms: UM      M1      
 Compute Stats, Diag. #    306  CPL_sFlx  vol(   0 ): 4.984E+14  Parms: SM      M1      
 Compute Stats, Diag. #    307  CPL_iceM  vol(   0 ): 4.984E+14  Parms: SM      M1      
 Compute Stats, Diag. #    309  CPL_aCO2  vol(   0 ): 4.984E+14  Parms: SM      M1      
 Compute Stats, Diag. #    310  CPL_wSpd  vol(   0 ): 4.984E+14  Parms: SM      M1      
 Compute Stats, Diag. #    311  CPL_icFr  vol(   0 ): 4.984E+14  Parms: SM P    M1      
 EXTERNAL_FIELDS_LOAD, 185414403 : iP,iLd,i0,i1=   12    1   12    1 ; Wght=  0.4958333333  0.5041666667
 DIC_FIELDS_LOAD, 185414403 : iP,iLd,i0,i1=   12    1   12    1 ; Wght=  0.4958333333  0.5041666667
 cg2d: Sum(rhs),rhsMax =   7.70684489963711E+01  1.14655162110730E+02
(PID.TID 0000.0001)      cg2d_init_res =   1.72263427126134E-02
(PID.TID 0000.0001)      cg2d_iters(min,last) =      -1      20
(PID.TID 0000.0001)      cg2d_last_res =   8.87931395516100E-10
(PID.TID 0000.0001) // =======================================================
(PID.TID 0000.0001) // Begin MONITOR dynamic field statistics
(PID.TID 0000.0001) // =======================================================
(PID.TID 0000.0001) %MON time_tsnumber                =             185414404
(PID.TID 0000.0001) %MON time_secondsf                =   6.6749185440000E+11
(PID.TID 0000.0001) %MON dynstat_eta_max              =   1.6849968020879E+00
(PID.TID 0000.0001) %MON dynstat_eta_min              =  -2.1718992603794E+01
(PID.TID 0000.0001) %MON dynstat_eta_mean             =  -6.9451499051613E-01
(PID.TID 0000.0001) %MON dynstat_eta_sd               =   3.9270180508106E+00
(PID.TID 0000.0001) %MON dynstat_eta_del2             =   5.9853785919416E-03
(PID.TID 0000.0001) %MON dynstat_uvel_max             =   5.1895644552822E-01
(PID.TID 0000.0001) %MON dynstat_uvel_min             =  -5.2951976691275E-01
(PID.TID 0000.0001) %MON dynstat_uvel_mean            =   2.4938921235124E-03
(PID.TID 0000.0001) %MON dynstat_uvel_sd              =   2.5072692166282E-02
(PID.TID 0000.0001) %MON dynstat_uvel_del2            =   1.6379654191743E-04
(PID.TID 0000.0001) %MON dynstat_vvel_max             =   4.5323826590703E-01
(PID.TID 0000.0001) %MON dynstat_vvel_min             =  -4.0792270922276E-01
(PID.TID 0000.0001) %MON dynstat_vvel_mean            =   2.4570368545505E-03
(PID.TID 0000.0001) %MON dynstat_vvel_sd              =   2.7140389458644E-02
(PID.TID 0000.0001) %MON dynstat_vvel_del2            =   1.5883145055888E-04
(PID.TID 0000.0001) %MON dynstat_wvel_max             =   8.1820033729566E-05
(PID.TID 0000.0001) %MON dynstat_wvel_min             =  -1.0941941514041E-04
(PID.TID 0000.0001) %MON dynstat_wvel_mean            =  -5.0473134171865E-09
(PID.TID 0000.0001) %MON dynstat_wvel_sd              =   5.6398377824109E-06
(PID.TID 0000.0001) %MON dynstat_wvel_del2            =   7.1632528663389E-08
(PID.TID 0000.0001) %MON dynstat_theta_max            =   3.2232368074502E+01
(PID.TID 0000.0001) %MON dynstat_theta_min            =  -1.7132623960175E+00
(PID.TID 0000.0001) %MON dynstat_theta_mean           =   9.0572755877564E+00
(PID.TID 0000.0001) %MON dynstat_theta_sd             =   4.5403458276931E+00
(PID.TID 0000.0001) %MON dynstat_theta_del2           =   4.3770138244797E-03
(PID.TID 0000.0001) %MON dynstat_salt_max             =   3.7499189411566E+01
(PID.TID 0000.0001) %MON dynstat_salt_min             =   3.0230043074493E+01
(PID.TID 0000.0001) %MON dynstat_salt_mean            =   3.4567000163910E+01
(PID.TID 0000.0001) %MON dynstat_salt_sd              =   4.4221023690130E-01
(PID.TID 0000.0001) %MON dynstat_salt_del2            =   1.0539729202306E-03
(PID.TID 0000.0001) %MON forcing_qnet_max             =   6.1367086749400E+02
(PID.TID 0000.0001) %MON forcing_qnet_min             =  -3.4917443330697E+02
(PID.TID 0000.0001) %MON forcing_qnet_mean            =   9.2849721868631E+00
(PID.TID 0000.0001) %MON forcing_qnet_sd              =   1.2157519105008E+02
(PID.TID 0000.0001) %MON forcing_qnet_del2            =   2.1924562689990E+00
(PID.TID 0000.0001) %MON forcing_qsw_max              =   0.0000000000000E+00
(PID.TID 0000.0001) %MON forcing_qsw_min              =  -4.1325008773297E+02
(PID.TID 0000.0001) %MON forcing_qsw_mean             =  -1.5690384717754E+02
(PID.TID 0000.0001) %MON forcing_qsw_sd               =   1.1112352206294E+02
(PID.TID 0000.0001) %MON forcing_qsw_del2             =   1.7716479257553E+00
(PID.TID 0000.0001) %MON forcing_empmr_max            =   1.9232033334385E-04
(PID.TID 0000.0001) %MON forcing_empmr_min            =  -7.8410796683871E-04
(PID.TID 0000.0001) %MON forcing_empmr_mean           =  -9.7043012634434E-06
(PID.TID 0000.0001) %MON forcing_empmr_sd             =   8.1807610113077E-05
(PID.TID 0000.0001) %MON forcing_empmr_del2           =   2.8299616680869E-06
(PID.TID 0000.0001) %MON forcing_fu_max               =   5.9031820250965E-01
(PID.TID 0000.0001) %MON forcing_fu_min               =  -3.8131932165798E-01
(PID.TID 0000.0001) %MON forcing_fu_mean              =  -4.0085027443169E-03
(PID.TID 0000.0001) %MON forcing_fu_sd                =   7.9170898268372E-02
(PID.TID 0000.0001) %MON forcing_fu_del2              =   1.2370461590495E-03
(PID.TID 0000.0001) %MON forcing_fv_max               =   3.9578007034062E-01
(PID.TID 0000.0001) %MON forcing_fv_min               =  -3.9823952974528E-01
(PID.TID 0000.0001) %MON forcing_fv_mean              =  -6.2187199334142E-03
(PID.TID 0000.0001) %MON forcing_fv_sd                =   6.8959909529013E-02
(PID.TID 0000.0001) %MON forcing_fv_del2              =   1.0540492397712E-03
(PID.TID 0000.0001) %MON trAdv_CFL_u_max              =   8.0263679743837E-03
(PID.TID 0000.0001) %MON trAdv_CFL_v_max              =   8.3460154030875E-03
(PID.TID 0000.0001) %MON trAdv_CFL_w_max              =   1.2087924418525E-02
(PID.TID 0000.0001) %MON advcfl_uvel_max              =   1.0855416965885E-02
(PID.TID 0000.0001) %MON advcfl_vvel_max              =   7.1615044588084E-03
(PID.TID 0000.0001) %MON advcfl_wvel_max              =   1.0358954185854E-02
(PID.TID 0000.0001) %MON advcfl_W_hf_max              =   1.2080891782532E-02
(PID.TID 0000.0001) %MON pe_b_mean                    =  -1.5809178056772E-02
(PID.TID 0000.0001) %MON ke_max                       =   1.4027065862736E-01
(PID.TID 0000.0001) %MON ke_mean                      =   6.8041302648581E-04
(PID.TID 0000.0001) %MON ke_vol                       =   1.4948939969935E+18
(PID.TID 0000.0001) %MON vort_r_min                   =  -2.9871353668869E-06
(PID.TID 0000.0001) %MON vort_r_max                   =   1.8698337100620E-06
(PID.TID 0000.0001) %MON vort_a_mean                  =  -5.3086686024923E-08
(PID.TID 0000.0001) %MON vort_a_sd                    =   8.4173722907087E-05
(PID.TID 0000.0001) %MON vort_p_mean                  =  -5.4952214537049E-08
(PID.TID 0000.0001) %MON vort_p_sd                    =   9.2000897568586E-05
(PID.TID 0000.0001) %MON surfExpan_theta_mean         =   1.0503433843802E-07
(PID.TID 0000.0001) %MON surfExpan_salt_mean          =   4.3699094941244E-08
(PID.TID 0000.0001) // =======================================================
(PID.TID 0000.0001) // End MONITOR dynamic field statistics
(PID.TID 0000.0001) // =======================================================
(PID.TID 0000.0001) // =======================================================
(PID.TID 0000.0001) // Begin MONITOR ptracer field statistics
(PID.TID 0000.0001) // =======================================================
(PID.TID 0000.0001) %MON trcstat_ptracer01_max        =   2.4559237632696E+00
(PID.TID 0000.0001) %MON trcstat_ptracer01_min        =   1.8039337450693E+00
(PID.TID 0000.0001) %MON trcstat_ptracer01_mean       =   2.2467073614862E+00
(PID.TID 0000.0001) %MON trcstat_ptracer01_sd         =   1.2424054941339E-01
(PID.TID 0000.0001) %MON trcstat_ptracer01_del2       =   5.3371719962768E-05
(PID.TID 0000.0001) %MON trcstat_ptracer02_max        =   2.5263679946102E+00
(PID.TID 0000.0001) %MON trcstat_ptracer02_min        =   2.0334522081369E+00
(PID.TID 0000.0001) %MON trcstat_ptracer02_mean       =   2.3606270527381E+00
(PID.TID 0000.0001) %MON trcstat_ptracer02_sd         =   6.7598335603916E-02
(PID.TID 0000.0001) %MON trcstat_ptracer02_del2       =   3.7323035039063E-05
(PID.TID 0000.0001) %MON trcstat_ptracer03_max        =   3.3820822613128E-03
(PID.TID 0000.0001) %MON trcstat_ptracer03_min        =   4.8025270870318E-05
(PID.TID 0000.0001) %MON trcstat_ptracer03_mean       =   2.1949932969193E-03
(PID.TID 0000.0001) %MON trcstat_ptracer03_sd         =   7.1471643728029E-04
(PID.TID 0000.0001) %MON trcstat_ptracer03_del2       =   3.7606907922558E-07
(PID.TID 0000.0001) %MON trcstat_ptracer04_max        =   2.8478710124611E-04
(PID.TID 0000.0001) %MON trcstat_ptracer04_min        =   3.2933063231944E-34
(PID.TID 0000.0001) %MON trcstat_ptracer04_mean       =   5.5089376817980E-06
(PID.TID 0000.0001) %MON trcstat_ptracer04_sd         =   2.3205473062505E-05
(PID.TID 0000.0001) %MON trcstat_ptracer04_del2       =   4.3489918952483E-08
(PID.TID 0000.0001) %MON trcstat_ptracer05_max        =   3.7172205723494E-01
(PID.TID 0000.0001) %MON trcstat_ptracer05_min        =  -6.7150538702678E-04
(PID.TID 0000.0001) %MON trcstat_ptracer05_mean       =   1.1079716184747E-01
(PID.TID 0000.0001) %MON trcstat_ptracer05_sd         =   7.7757796532975E-02
(PID.TID 0000.0001) %MON trcstat_ptracer05_del2       =   4.0393927528805E-05
(PID.TID 0000.0001) // =======================================================
(PID.TID 0000.0001) // End MONITOR ptracer field statistics
(PID.TID 0000.0001) // =======================================================
 Compute Stats, Diag. #    300  CPL_SLPr  vol(   0 ): 4.984E+14  Parms: SM      M1      
 Compute Stats, Diag. #    301  CPL_Qnet  vol(   0 ): 4.984E+14  Parms: SM      M1      
 Compute Stats, Diag. #    302  CPL_Qsw   vol(   0 ): 4.984E+14  Parms: SM      M1      
 Compute Stats, Diag. #    303  CPL_tauX  vol(   0 ): 4.984E+14  Parms: UM      M1      
 Compute Stats, Diag. #    304  CPL_tauY  vol(   0 ): 4.984E+14  Parms: UM      M1      
 Compute Stats, Diag. #    306  CPL_sFlx  vol(   0 ): 4.984E+14  Parms: SM      M1      
 Compute Stats, Diag. #    307  CPL_iceM  vol(   0 ): 4.984E+14  Parms: SM      M1      
 Compute Stats, Diag. #    309  CPL_aCO2  vol(   0 ): 4.984E+14  Parms: SM      M1      
 Compute Stats, Diag. #    310  CPL_wSpd  vol(   0 ): 4.984E+14  Parms: SM      M1      
 Compute Stats, Diag. #    311  CPL_icFr  vol(   0 ): 4.984E+14  Parms: SM P    M1      
 EXTERNAL_FIELDS_LOAD, 185414404 : iP,iLd,i0,i1=   12    1   12    1 ; Wght=  0.4944444444  0.5055555556
 DIC_FIELDS_LOAD, 185414404 : iP,iLd,i0,i1=   12    1   12    1 ; Wght=  0.4944444444  0.5055555556
 cg2d: Sum(rhs),rhsMax =   7.70644385090573E+01  1.14655591653909E+02
(PID.TID 0000.0001)      cg2d_init_res =   1.77201100784630E-02
(PID.TID 0000.0001)      cg2d_iters(min,last) =      -1      20
(PID.TID 0000.0001)      cg2d_last_res =   9.10566737907949E-10
(PID.TID 0000.0001) // =======================================================
(PID.TID 0000.0001) // Begin MONITOR dynamic field statistics
(PID.TID 0000.0001) // =======================================================
(PID.TID 0000.0001) %MON time_tsnumber                =             185414405
(PID.TID 0000.0001) %MON time_secondsf                =   6.6749185800000E+11
(PID.TID 0000.0001) %MON dynstat_eta_max              =   1.6847486955416E+00
(PID.TID 0000.0001) %MON dynstat_eta_min              =  -2.1718692796246E+01
(PID.TID 0000.0001) %MON dynstat_eta_mean             =  -6.9448145114077E-01
(PID.TID 0000.0001) %MON dynstat_eta_sd               =   3.9268750560407E+00
(PID.TID 0000.0001) %MON dynstat_eta_del2             =   5.9840901931936E-03
(PID.TID 0000.0001) %MON dynstat_uvel_max             =   5.2159550202020E-01
(PID.TID 0000.0001) %MON dynstat_uvel_min             =  -5.2901099497042E-01
(PID.TID 0000.0001) %MON dynstat_uvel_mean            =   2.4976153227572E-03
(PID.TID 0000.0001) %MON dynstat_uvel_sd              =   2.5048207153832E-02
(PID.TID 0000.0001) %MON dynstat_uvel_del2            =   1.6323202630930E-04
(PID.TID 0000.0001) %MON dynstat_vvel_max             =   4.8056114087230E-01
(PID.TID 0000.0001) %MON dynstat_vvel_min             =  -4.2118593413034E-01
(PID.TID 0000.0001) %MON dynstat_vvel_mean            =   2.4586336057178E-03
(PID.TID 0000.0001) %MON dynstat_vvel_sd              =   2.7142477330027E-02
(PID.TID 0000.0001) %MON dynstat_vvel_del2            =   1.5843692913803E-04
(PID.TID 0000.0001) %MON dynstat_wvel_max             =   7.7657526773222E-05
(PID.TID 0000.0001) %MON dynstat_wvel_min             =  -1.0680775511899E-04
(PID.TID 0000.0001) %MON dynstat_wvel_mean            =  -4.9909784764423E-09
(PID.TID 0000.0001) %MON dynstat_wvel_sd              =   5.6290009663448E-06
(PID.TID 0000.0001) %MON dynstat_wvel_del2            =   7.1418906699559E-08
(PID.TID 0000.0001) %MON dynstat_theta_max            =   3.2233357813924E+01
(PID.TID 0000.0001) %MON dynstat_theta_min            =  -1.7132466674426E+00
(PID.TID 0000.0001) %MON dynstat_theta_mean           =   9.0572728040890E+00
(PID.TID 0000.0001) %MON dynstat_theta_sd             =   4.5403383933668E+00
(PID.TID 0000.0001) %MON dynstat_theta_del2           =   4.3768497204447E-03
(PID.TID 0000.0001) %MON dynstat_salt_max             =   3.7499095622196E+01
(PID.TID 0000.0001) %MON dynstat_salt_min             =   3.0231620336060E+01
(PID.TID 0000.0001) %MON dynstat_salt_mean            =   3.4566999806365E+01
(PID.TID 0000.0001) %MON dynstat_salt_sd              =   4.4221201793433E-01
(PID.TID 0000.0001) %MON dynstat_salt_del2            =   1.0539690442952E-03
(PID.TID 0000.0001) %MON forcing_qnet_max             =   6.1998304618504E+02
(PID.TID 0000.0001) %MON forcing_qnet_min             =  -3.4714590156483E+02
(PID.TID 0000.0001) %MON forcing_qnet_mean            =   9.2027362853980E+00
(PID.TID 0000.0001) %MON forcing_qnet_sd              =   1.2132142171037E+02
(PID.TID 0000.0001) %MON forcing_qnet_del2            =   2.1735857362738E+00
(PID.TID 0000.0001) %MON forcing_qsw_max              =   0.0000000000000E+00
(PID.TID 0000.0001) %MON forcing_qsw_min              =  -4.1272921094405E+02
(PID.TID 0000.0001) %MON forcing_qsw_mean             =  -1.5696073136003E+02
(PID.TID 0000.0001) %MON forcing_qsw_sd               =   1.1116580725378E+02
(PID.TID 0000.0001) %MON forcing_qsw_del2             =   1.7666308006497E+00
(PID.TID 0000.0001) %MON forcing_empmr_max            =   1.9471565387553E-04
(PID.TID 0000.0001) %MON forcing_empmr_min            =  -7.9574855846616E-04
(PID.TID 0000.0001) %MON forcing_empmr_mean           =  -9.5959879507067E-06
(PID.TID 0000.0001) %MON forcing_empmr_sd             =   8.2201289266305E-05
(PID.TID 0000.0001) %MON forcing_empmr_del2           =   2.9045917440347E-06
(PID.TID 0000.0001) %MON forcing_fu_max               =   6.1345590518278E-01
(PID.TID 0000.0001) %MON forcing_fu_min               =  -3.7502948947761E-01
(PID.TID 0000.0001) %MON forcing_fu_mean              =  -4.0546188512761E-03
(PID.TID 0000.0001) %MON forcing_fu_sd                =   7.9034380252428E-02
(PID.TID 0000.0001) %MON forcing_fu_del2              =   1.2332700294604E-03
(PID.TID 0000.0001) %MON forcing_fv_max               =   3.9354088130769E-01
(PID.TID 0000.0001) %MON forcing_fv_min               =  -3.9282346570751E-01
(PID.TID 0000.0001) %MON forcing_fv_mean              =  -6.2344954409991E-03
(PID.TID 0000.0001) %MON forcing_fv_sd                =   6.9006395558685E-02
(PID.TID 0000.0001) %MON forcing_fv_del2              =   1.0531328689199E-03
(PID.TID 0000.0001) %MON trAdv_CFL_u_max              =   8.1694982740403E-03
(PID.TID 0000.0001) %MON trAdv_CFL_v_max              =   7.4395127669108E-03
(PID.TID 0000.0001) %MON trAdv_CFL_w_max              =   1.1806580918741E-02
(PID.TID 0000.0001) %MON advcfl_uvel_max              =   1.1048993997383E-02
(PID.TID 0000.0001) %MON advcfl_vvel_max              =   6.3264493940838E-03
(PID.TID 0000.0001) %MON advcfl_wvel_max              =   1.0119386180497E-02
(PID.TID 0000.0001) %MON advcfl_W_hf_max              =   1.1801493327424E-02
(PID.TID 0000.0001) %MON pe_b_mean                    =  -1.5808952622276E-02
(PID.TID 0000.0001) %MON ke_max                       =   1.3986945689556E-01
(PID.TID 0000.0001) %MON ke_mean                      =   6.7987458049143E-04
(PID.TID 0000.0001) %MON ke_vol                       =   1.4948940138986E+18
(PID.TID 0000.0001) %MON vort_r_min                   =  -2.5062745659870E-06
(PID.TID 0000.0001) %MON vort_r_max                   =   1.7880856696411E-06
(PID.TID 0000.0001) %MON vort_a_mean                  =  -5.3086686024826E-08
(PID.TID 0000.0001) %MON vort_a_sd                    =   8.4173723579570E-05
(PID.TID 0000.0001) %MON vort_p_mean                  =  -5.4952213901120E-08
(PID.TID 0000.0001) %MON vort_p_sd                    =   9.2000899664069E-05
(PID.TID 0000.0001) %MON surfExpan_theta_mean         =   1.0406738634608E-07
(PID.TID 0000.0001) %MON surfExpan_salt_mean          =   4.3256244417944E-08
(PID.TID 0000.0001) // =======================================================
(PID.TID 0000.0001) // End MONITOR dynamic field statistics
(PID.TID 0000.0001) // =======================================================
(PID.TID 0000.0001) // =======================================================
(PID.TID 0000.0001) // Begin MONITOR ptracer field statistics
(PID.TID 0000.0001) // =======================================================
(PID.TID 0000.0001) %MON trcstat_ptracer01_max        =   2.4559237370582E+00
(PID.TID 0000.0001) %MON trcstat_ptracer01_min        =   1.8039366720348E+00
(PID.TID 0000.0001) %MON trcstat_ptracer01_mean       =   2.2467073484866E+00
(PID.TID 0000.0001) %MON trcstat_ptracer01_sd         =   1.2424055542958E-01
(PID.TID 0000.0001) %MON trcstat_ptracer01_del2       =   5.3374144612747E-05
(PID.TID 0000.0001) %MON trcstat_ptracer02_max        =   2.5263679719578E+00
(PID.TID 0000.0001) %MON trcstat_ptracer02_min        =   2.0334539250369E+00
(PID.TID 0000.0001) %MON trcstat_ptracer02_mean       =   2.3606270248124E+00
(PID.TID 0000.0001) %MON trcstat_ptracer02_sd         =   6.7598416013251E-02
(PID.TID 0000.0001) %MON trcstat_ptracer02_del2       =   3.7323847821976E-05
(PID.TID 0000.0001) %MON trcstat_ptracer03_max        =   3.3820822197443E-03
(PID.TID 0000.0001) %MON trcstat_ptracer03_min        =   4.8025630552214E-05
(PID.TID 0000.0001) %MON trcstat_ptracer03_mean       =   2.1949933636541E-03
(PID.TID 0000.0001) %MON trcstat_ptracer03_sd         =   7.1471611102749E-04
(PID.TID 0000.0001) %MON trcstat_ptracer03_del2       =   3.7607649087854E-07
(PID.TID 0000.0001) %MON trcstat_ptracer04_max        =   2.8479427314500E-04
(PID.TID 0000.0001) %MON trcstat_ptracer04_min        =   3.3053757209191E-34
(PID.TID 0000.0001) %MON trcstat_ptracer04_mean       =   5.5088456482381E-06
(PID.TID 0000.0001) %MON trcstat_ptracer04_sd         =   2.3205083423652E-05
(PID.TID 0000.0001) %MON trcstat_ptracer04_del2       =   4.3493461892366E-08
(PID.TID 0000.0001) %MON trcstat_ptracer05_max        =   3.7175865072591E-01
(PID.TID 0000.0001) %MON trcstat_ptracer05_min        =  -6.7137855946198E-04
(PID.TID 0000.0001) %MON trcstat_ptracer05_mean       =   1.1079716851693E-01
(PID.TID 0000.0001) %MON trcstat_ptracer05_sd         =   7.7757795556762E-02
(PID.TID 0000.0001) %MON trcstat_ptracer05_del2       =   4.0396633082403E-05
(PID.TID 0000.0001) // =======================================================
(PID.TID 0000.0001) // End MONITOR ptracer field statistics
(PID.TID 0000.0001) // =======================================================
 Compute Stats, Diag. #    300  CPL_SLPr  vol(   0 ): 4.984E+14  Parms: SM      M1      
 Compute Stats, Diag. #    301  CPL_Qnet  vol(   0 ): 4.984E+14  Parms: SM      M1      
 Compute Stats, Diag. #    302  CPL_Qsw   vol(   0 ): 4.984E+14  Parms: SM      M1      
 Compute Stats, Diag. #    303  CPL_tauX  vol(   0 ): 4.984E+14  Parms: UM      M1      
 Compute Stats, Diag. #    304  CPL_tauY  vol(   0 ): 4.984E+14  Parms: UM      M1      
 Compute Stats, Diag. #    306  CPL_sFlx  vol(   0 ): 4.984E+14  Parms: SM      M1      
 Compute Stats, Diag. #    307  CPL_iceM  vol(   0 ): 4.984E+14  Parms: SM      M1      
 Compute Stats, Diag. #    309  CPL_aCO2  vol(   0 ): 4.984E+14  Parms: SM      M1      
 Compute Stats, Diag. #    310  CPL_wSpd  vol(   0 ): 4.984E+14  Parms: SM      M1      
 Compute Stats, Diag. #    311  CPL_icFr  vol(   0 ): 4.984E+14  Parms: SM P    M1      
 EXTERNAL_FIELDS_LOAD, 185414405 : iP,iLd,i0,i1=   12    1   12    1 ; Wght=  0.4930555556  0.5069444444
 DIC_FIELDS_LOAD, 185414405 : iP,iLd,i0,i1=   12    1   12    1 ; Wght=  0.4930555556  0.5069444444
 cg2d: Sum(rhs),rhsMax =   7.70603482217120E+01  1.14656341724803E+02
(PID.TID 0000.0001)      cg2d_init_res =   1.81371169997398E-02
(PID.TID 0000.0001)      cg2d_iters(min,last) =      -1      20
(PID.TID 0000.0001)      cg2d_last_res =   9.40963230350597E-10
(PID.TID 0000.0001) // =======================================================
(PID.TID 0000.0001) // Begin MONITOR dynamic field statistics
(PID.TID 0000.0001) // =======================================================
(PID.TID 0000.0001) %MON time_tsnumber                =             185414406
(PID.TID 0000.0001) %MON time_secondsf                =   6.6749186160000E+11
(PID.TID 0000.0001) %MON dynstat_eta_max              =   1.6844076408097E+00
(PID.TID 0000.0001) %MON dynstat_eta_min              =  -2.1718376783997E+01
(PID.TID 0000.0001) %MON dynstat_eta_mean             =  -6.9444913372647E-01
(PID.TID 0000.0001) %MON dynstat_eta_sd               =   3.9267327512541E+00
(PID.TID 0000.0001) %MON dynstat_eta_del2             =   5.9828579154480E-03
(PID.TID 0000.0001) %MON dynstat_uvel_max             =   5.2470389359616E-01
(PID.TID 0000.0001) %MON dynstat_uvel_min             =  -5.2828575621086E-01
(PID.TID 0000.0001) %MON dynstat_uvel_mean            =   2.5010492634897E-03
(PID.TID 0000.0001) %MON dynstat_uvel_sd              =   2.5022363033651E-02
(PID.TID 0000.0001) %MON dynstat_uvel_del2            =   1.6275437131234E-04
(PID.TID 0000.0001) %MON dynstat_vvel_max             =   4.9806969776486E-01
(PID.TID 0000.0001) %MON dynstat_vvel_min             =  -4.2487649835256E-01
(PID.TID 0000.0001) %MON dynstat_vvel_mean            =   2.4597147454367E-03
(PID.TID 0000.0001) %MON dynstat_vvel_sd              =   2.7144352686516E-02
(PID.TID 0000.0001) %MON dynstat_vvel_del2            =   1.5806530741184E-04
(PID.TID 0000.0001) %MON dynstat_wvel_max             =   6.9938094166508E-05
(PID.TID 0000.0001) %MON dynstat_wvel_min             =  -9.9198949742615E-05
(PID.TID 0000.0001) %MON dynstat_wvel_mean            =  -4.8091390317501E-09
(PID.TID 0000.0001) %MON dynstat_wvel_sd              =   5.6175508955022E-06
(PID.TID 0000.0001) %MON dynstat_wvel_del2            =   7.1266293905434E-08
(PID.TID 0000.0001) %MON dynstat_theta_max            =   3.2234344261066E+01
(PID.TID 0000.0001) %MON dynstat_theta_min            =  -1.7132310287401E+00
(PID.TID 0000.0001) %MON dynstat_theta_mean           =   9.0572700703843E+00
(PID.TID 0000.0001) %MON dynstat_theta_sd             =   4.5403311971039E+00
(PID.TID 0000.0001) %MON dynstat_theta_del2           =   4.3766856095554E-03
(PID.TID 0000.0001) %MON dynstat_salt_max             =   3.7499007873146E+01
(PID.TID 0000.0001) %MON dynstat_salt_min             =   3.0233346400025E+01
(PID.TID 0000.0001) %MON dynstat_salt_mean            =   3.4566999463020E+01
(PID.TID 0000.0001) %MON dynstat_salt_sd              =   4.4221377251934E-01
(PID.TID 0000.0001) %MON dynstat_salt_del2            =   1.0539673128177E-03
(PID.TID 0000.0001) %MON forcing_qnet_max             =   6.0566514160239E+02
(PID.TID 0000.0001) %MON forcing_qnet_min             =  -3.4662135222725E+02
(PID.TID 0000.0001) %MON forcing_qnet_mean            =   9.0493237551687E+00
(PID.TID 0000.0001) %MON forcing_qnet_sd              =   1.2103970738779E+02
(PID.TID 0000.0001) %MON forcing_qnet_del2            =   2.1565968005333E+00
(PID.TID 0000.0001) %MON forcing_qsw_max              =   0.0000000000000E+00
(PID.TID 0000.0001) %MON forcing_qsw_min              =  -4.1268321012219E+02
(PID.TID 0000.0001) %MON forcing_qsw_mean             =  -1.5712328378107E+02
(PID.TID 0000.0001) %MON forcing_qsw_sd               =   1.1121242789455E+02
(PID.TID 0000.0001) %MON forcing_qsw_del2             =   1.7565367105179E+00
(PID.TID 0000.0001) %MON forcing_empmr_max            =   1.9005195434200E-04
(PID.TID 0000.0001) %MON forcing_empmr_min            =  -7.9969506842971E-04
(PID.TID 0000.0001) %MON forcing_empmr_mean           =  -9.2463713117111E-06
(PID.TID 0000.0001) %MON forcing_empmr_sd             =   8.1394194512470E-05
(PID.TID 0000.0001) %MON forcing_empmr_del2           =   2.8297203228710E-06
(PID.TID 0000.0001) %MON forcing_fu_max               =   6.1553627699788E-01
(PID.TID 0000.0001) %MON forcing_fu_min               =  -3.7013207872128E-01
(PID.TID 0000.0001) %MON forcing_fu_mean              =  -4.1189519240122E-03
(PID.TID 0000.0001) %MON forcing_fu_sd                =   7.8904058442499E-02
(PID.TID 0000.0001) %MON forcing_fu_del2              =   1.2322218136176E-03
(PID.TID 0000.0001) %MON forcing_fv_max               =   3.8773041717038E-01
(PID.TID 0000.0001) %MON forcing_fv_min               =  -4.1158794299437E-01
(PID.TID 0000.0001) %MON forcing_fv_mean              =  -6.2567456274569E-03
(PID.TID 0000.0001) %MON forcing_fv_sd                =   6.9034198735608E-02
(PID.TID 0000.0001) %MON forcing_fv_del2              =   1.0537594530899E-03
(PID.TID 0000.0001) %MON trAdv_CFL_u_max              =   7.8186595954752E-03
(PID.TID 0000.0001) %MON trAdv_CFL_v_max              =   6.4763052226586E-03
(PID.TID 0000.0001) %MON trAdv_CFL_w_max              =   1.0915955821473E-02
(PID.TID 0000.0001) %MON advcfl_uvel_max              =   1.0574493562569E-02
(PID.TID 0000.0001) %MON advcfl_vvel_max              =   6.5569445168129E-03
(PID.TID 0000.0001) %MON advcfl_wvel_max              =   9.3576872990222E-03
(PID.TID 0000.0001) %MON advcfl_W_hf_max              =   1.0913171695404E-02
(PID.TID 0000.0001) %MON pe_b_mean                    =  -1.5808815253731E-02
(PID.TID 0000.0001) %MON ke_max                       =   1.3937478490139E-01
(PID.TID 0000.0001) %MON ke_mean                      =   6.7929550477422E-04
(PID.TID 0000.0001) %MON ke_vol                       =   1.4948940306151E+18
(PID.TID 0000.0001) %MON vort_r_min                   =  -2.5901135791646E-06
(PID.TID 0000.0001) %MON vort_r_max                   =   2.4229170475085E-06
(PID.TID 0000.0001) %MON vort_a_mean                  =  -5.3086686024828E-08
(PID.TID 0000.0001) %MON vort_a_sd                    =   8.4173724095904E-05
(PID.TID 0000.0001) %MON vort_p_mean                  =  -5.4952213268637E-08
(PID.TID 0000.0001) %MON vort_p_sd                    =   9.2000901244140E-05
(PID.TID 0000.0001) %MON surfExpan_theta_mean         =   1.0312125937814E-07
(PID.TID 0000.0001) %MON surfExpan_salt_mean          =   4.2575320293351E-08
(PID.TID 0000.0001) // =======================================================
(PID.TID 0000.0001) // End MONITOR dynamic field statistics
(PID.TID 0000.0001) // =======================================================
(PID.TID 0000.0001) // =======================================================
(PID.TID 0000.0001) // Begin MONITOR ptracer field statistics
(PID.TID 0000.0001) // =======================================================
(PID.TID 0000.0001) %MON trcstat_ptracer01_max        =   2.4559237102433E+00
(PID.TID 0000.0001) %MON trcstat_ptracer01_min        =   1.8039399156293E+00
(PID.TID 0000.0001) %MON trcstat_ptracer01_mean       =   2.2467073361763E+00
(PID.TID 0000.0001) %MON trcstat_ptracer01_sd         =   1.2424055956881E-01
(PID.TID 0000.0001) %MON trcstat_ptracer01_del2       =   5.3377123503913E-05
(PID.TID 0000.0001) %MON trcstat_ptracer02_max        =   2.5263679486703E+00
(PID.TID 0000.0001) %MON trcstat_ptracer02_min        =   2.0334556647116E+00
(PID.TID 0000.0001) %MON trcstat_ptracer02_mean       =   2.3606269978496E+00
(PID.TID 0000.0001) %MON trcstat_ptracer02_sd         =   6.7598494517402E-02
(PID.TID 0000.0001) %MON trcstat_ptracer02_del2       =   3.7324583591519E-05
(PID.TID 0000.0001) %MON trcstat_ptracer03_max        =   3.3820821758384E-03
(PID.TID 0000.0001) %MON trcstat_ptracer03_min        =   4.8026024650786E-05
(PID.TID 0000.0001) %MON trcstat_ptracer03_mean       =   2.1949934302442E-03
(PID.TID 0000.0001) %MON trcstat_ptracer03_sd         =   7.1471578478488E-04
(PID.TID 0000.0001) %MON trcstat_ptracer03_del2       =   3.7608818937535E-07
(PID.TID 0000.0001) %MON trcstat_ptracer04_max        =   2.8480163069221E-04
(PID.TID 0000.0001) %MON trcstat_ptracer04_min        =   3.3315336115795E-34
(PID.TID 0000.0001) %MON trcstat_ptracer04_mean       =   5.5087543404345E-06
(PID.TID 0000.0001) %MON trcstat_ptracer04_sd         =   2.3204698304627E-05
(PID.TID 0000.0001) %MON trcstat_ptracer04_del2       =   4.3499077929846E-08
(PID.TID 0000.0001) %MON trcstat_ptracer05_max        =   3.7179495055615E-01
(PID.TID 0000.0001) %MON trcstat_ptracer05_min        =  -6.7125069464097E-04
(PID.TID 0000.0001) %MON trcstat_ptracer05_mean       =   1.1079717523801E-01
(PID.TID 0000.0001) %MON trcstat_ptracer05_sd         =   7.7757794337942E-02
(PID.TID 0000.0001) %MON trcstat_ptracer05_del2       =   4.0399868110641E-05
(PID.TID 0000.0001) // =======================================================
(PID.TID 0000.0001) // End MONITOR ptracer field statistics
(PID.TID 0000.0001) // =======================================================
 Compute Stats, Diag. #    300  CPL_SLPr  vol(   0 ): 4.984E+14  Parms: SM      M1      
 Compute Stats, Diag. #    301  CPL_Qnet  vol(   0 ): 4.984E+14  Parms: SM      M1      
 Compute Stats, Diag. #    302  CPL_Qsw   vol(   0 ): 4.984E+14  Parms: SM      M1      
 Compute Stats, Diag. #    303  CPL_tauX  vol(   0 ): 4.984E+14  Parms: UM      M1      
 Compute Stats, Diag. #    304  CPL_tauY  vol(   0 ): 4.984E+14  Parms: UM      M1      
 Compute Stats, Diag. #    306  CPL_sFlx  vol(   0 ): 4.984E+14  Parms: SM      M1      
 Compute Stats, Diag. #    307  CPL_iceM  vol(   0 ): 4.984E+14  Parms: SM      M1      
 Compute Stats, Diag. #    309  CPL_aCO2  vol(   0 ): 4.984E+14  Parms: SM      M1      
 Compute Stats, Diag. #    310  CPL_wSpd  vol(   0 ): 4.984E+14  Parms: SM      M1      
 Compute Stats, Diag. #    311  CPL_icFr  vol(   0 ): 4.984E+14  Parms: SM P    M1      
 EXTERNAL_FIELDS_LOAD, 185414406 : iP,iLd,i0,i1=   12    1   12    1 ; Wght=  0.4916666667  0.5083333333
 DIC_FIELDS_LOAD, 185414406 : iP,iLd,i0,i1=   12    1   12    1 ; Wght=  0.4916666667  0.5083333333
 cg2d: Sum(rhs),rhsMax =   7.70561667049648E+01  1.14657382837247E+02
(PID.TID 0000.0001)      cg2d_init_res =   1.84857835262346E-02
(PID.TID 0000.0001)      cg2d_iters(min,last) =      -1      20
(PID.TID 0000.0001)      cg2d_last_res =   9.69587554851840E-10
(PID.TID 0000.0001) // =======================================================
(PID.TID 0000.0001) // Begin MONITOR dynamic field statistics
(PID.TID 0000.0001) // =======================================================
(PID.TID 0000.0001) %MON time_tsnumber                =             185414407
(PID.TID 0000.0001) %MON time_secondsf                =   6.6749186520000E+11
(PID.TID 0000.0001) %MON dynstat_eta_max              =   1.6839352525635E+00
(PID.TID 0000.0001) %MON dynstat_eta_min              =  -2.1718064057870E+01
(PID.TID 0000.0001) %MON dynstat_eta_mean             =  -6.9441775636859E-01
(PID.TID 0000.0001) %MON dynstat_eta_sd               =   3.9265916271024E+00
(PID.TID 0000.0001) %MON dynstat_eta_del2             =   5.9818480069124E-03
(PID.TID 0000.0001) %MON dynstat_uvel_max             =   5.1425451497584E-01
(PID.TID 0000.0001) %MON dynstat_uvel_min             =  -5.2734678085837E-01
(PID.TID 0000.0001) %MON dynstat_uvel_mean            =   2.5042564927018E-03
(PID.TID 0000.0001) %MON dynstat_uvel_sd              =   2.4996497009260E-02
(PID.TID 0000.0001) %MON dynstat_uvel_del2            =   1.6241018029079E-04
(PID.TID 0000.0001) %MON dynstat_vvel_max             =   4.8918800143560E-01
(PID.TID 0000.0001) %MON dynstat_vvel_min             =  -4.0155109269852E-01
(PID.TID 0000.0001) %MON dynstat_vvel_mean            =   2.4601371727686E-03
(PID.TID 0000.0001) %MON dynstat_vvel_sd              =   2.7144632219622E-02
(PID.TID 0000.0001) %MON dynstat_vvel_del2            =   1.5772816486574E-04
(PID.TID 0000.0001) %MON dynstat_wvel_max             =   5.9282213620489E-05
(PID.TID 0000.0001) %MON dynstat_wvel_min             =  -9.8235453366695E-05
(PID.TID 0000.0001) %MON dynstat_wvel_mean            =  -4.6692496850493E-09
(PID.TID 0000.0001) %MON dynstat_wvel_sd              =   5.6056814388253E-06
(PID.TID 0000.0001) %MON dynstat_wvel_del2            =   7.1181653151809E-08
(PID.TID 0000.0001) %MON dynstat_theta_max            =   3.2235323742349E+01
(PID.TID 0000.0001) %MON dynstat_theta_min            =  -1.7132152857299E+00
(PID.TID 0000.0001) %MON dynstat_theta_mean           =   9.0572673707365E+00
(PID.TID 0000.0001) %MON dynstat_theta_sd             =   4.5403242038626E+00
(PID.TID 0000.0001) %MON dynstat_theta_del2           =   4.3765327098296E-03
(PID.TID 0000.0001) %MON dynstat_salt_max             =   3.7498929541818E+01
(PID.TID 0000.0001) %MON dynstat_salt_min             =   3.0235230638249E+01
(PID.TID 0000.0001) %MON dynstat_salt_mean            =   3.4566999130746E+01
(PID.TID 0000.0001) %MON dynstat_salt_sd              =   4.4221552346151E-01
(PID.TID 0000.0001) %MON dynstat_salt_del2            =   1.0539753895137E-03
(PID.TID 0000.0001) %MON forcing_qnet_max             =   5.7413991541862E+02
(PID.TID 0000.0001) %MON forcing_qnet_min             =  -3.4755843301309E+02
(PID.TID 0000.0001) %MON forcing_qnet_mean            =   8.9477667293849E+00
(PID.TID 0000.0001) %MON forcing_qnet_sd              =   1.2070127756221E+02
(PID.TID 0000.0001) %MON forcing_qnet_del2            =   2.1469011499702E+00
(PID.TID 0000.0001) %MON forcing_qsw_max              =   0.0000000000000E+00
(PID.TID 0000.0001) %MON forcing_qsw_min              =  -4.1246496217345E+02
(PID.TID 0000.0001) %MON forcing_qsw_mean             =  -1.5726589150036E+02
(PID.TID 0000.0001) %MON forcing_qsw_sd               =   1.1128580331353E+02
(PID.TID 0000.0001) %MON forcing_qsw_del2             =   1.7558382679327E+00
(PID.TID 0000.0001) %MON forcing_empmr_max            =   1.7968578695527E-04
(PID.TID 0000.0001) %MON forcing_empmr_min            =  -7.9556322619363E-04
(PID.TID 0000.0001) %MON forcing_empmr_mean           =  -8.9774107277883E-06
(PID.TID 0000.0001) %MON forcing_empmr_sd             =   8.0703741058085E-05
(PID.TID 0000.0001) %MON forcing_empmr_del2           =   2.7881468677101E-06
(PID.TID 0000.0001) %MON forcing_fu_max               =   6.0586808295347E-01
(PID.TID 0000.0001) %MON forcing_fu_min               =  -3.7444634931035E-01
(PID.TID 0000.0001) %MON forcing_fu_mean              =  -4.2000168646232E-03
(PID.TID 0000.0001) %MON forcing_fu_sd                =   7.8792295880258E-02
(PID.TID 0000.0001) %MON forcing_fu_del2              =   1.2349565609698E-03
(PID.TID 0000.0001) %MON forcing_fv_max               =   3.8584409827471E-01
(PID.TID 0000.0001) %MON forcing_fv_min               =  -4.2105249527248E-01
(PID.TID 0000.0001) %MON forcing_fv_mean              =  -6.2910895276237E-03
(PID.TID 0000.0001) %MON forcing_fv_sd                =   6.9047802863628E-02
(PID.TID 0000.0001) %MON forcing_fv_del2              =   1.0594967155987E-03
(PID.TID 0000.0001) %MON trAdv_CFL_u_max              =   7.8666274982765E-03
(PID.TID 0000.0001) %MON trAdv_CFL_v_max              =   6.6862662123022E-03
(PID.TID 0000.0001) %MON trAdv_CFL_w_max              =   1.0617779314848E-02
(PID.TID 0000.0001) %MON advcfl_uvel_max              =   1.0639390198385E-02
(PID.TID 0000.0001) %MON advcfl_vvel_max              =   6.6830755088865E-03
(PID.TID 0000.0001) %MON advcfl_wvel_max              =   9.1011865156482E-03
(PID.TID 0000.0001) %MON advcfl_W_hf_max              =   1.0613594310883E-02
(PID.TID 0000.0001) %MON pe_b_mean                    =  -1.5808742025282E-02
(PID.TID 0000.0001) %MON ke_max                       =   1.4174302003816E-01
(PID.TID 0000.0001) %MON ke_mean                      =   6.7867170742106E-04
(PID.TID 0000.0001) %MON ke_vol                       =   1.4948940467225E+18
(PID.TID 0000.0001) %MON vort_r_min                   =  -2.6205161930841E-06
(PID.TID 0000.0001) %MON vort_r_max                   =   2.9723267206821E-06
(PID.TID 0000.0001) %MON vort_a_mean                  =  -5.3086686024897E-08
(PID.TID 0000.0001) %MON vort_a_sd                    =   8.4173724473096E-05
(PID.TID 0000.0001) %MON vort_p_mean                  =  -5.4952212657125E-08
(PID.TID 0000.0001) %MON vort_p_sd                    =   9.2000902341569E-05
(PID.TID 0000.0001) %MON surfExpan_theta_mean         =   1.0338165109658E-07
(PID.TID 0000.0001) %MON surfExpan_salt_mean          =   4.1823600246036E-08
(PID.TID 0000.0001) // =======================================================
(PID.TID 0000.0001) // End MONITOR dynamic field statistics
(PID.TID 0000.0001) // =======================================================
(PID.TID 0000.0001) // =======================================================
(PID.TID 0000.0001) // Begin MONITOR ptracer field statistics
(PID.TID 0000.0001) // =======================================================
(PID.TID 0000.0001) %MON trcstat_ptracer01_max        =   2.4559236827778E+00
(PID.TID 0000.0001) %MON trcstat_ptracer01_min        =   1.8039435424355E+00
(PID.TID 0000.0001) %MON trcstat_ptracer01_mean       =   2.2467073243634E+00
(PID.TID 0000.0001) %MON trcstat_ptracer01_sd         =   1.2424056181252E-01
(PID.TID 0000.0001) %MON trcstat_ptracer01_del2       =   5.3380346683612E-05
(PID.TID 0000.0001) %MON trcstat_ptracer02_max        =   2.5263679247253E+00
(PID.TID 0000.0001) %MON trcstat_ptracer02_min        =   2.0334574242081E+00
(PID.TID 0000.0001) %MON trcstat_ptracer02_mean       =   2.3606269716356E+00
(PID.TID 0000.0001) %MON trcstat_ptracer02_sd         =   6.7598571755278E-02
(PID.TID 0000.0001) %MON trcstat_ptracer02_del2       =   3.7325293807786E-05
(PID.TID 0000.0001) %MON trcstat_ptracer03_max        =   3.3820821285884E-03
(PID.TID 0000.0001) %MON trcstat_ptracer03_min        =   4.8026445123686E-05
(PID.TID 0000.0001) %MON trcstat_ptracer03_mean       =   2.1949934966632E-03
(PID.TID 0000.0001) %MON trcstat_ptracer03_sd         =   7.1471545777349E-04
(PID.TID 0000.0001) %MON trcstat_ptracer03_del2       =   3.7609871925843E-07
(PID.TID 0000.0001) %MON trcstat_ptracer04_max        =   2.8480921350278E-04
(PID.TID 0000.0001) %MON trcstat_ptracer04_min        =   3.3553197748607E-34
(PID.TID 0000.0001) %MON trcstat_ptracer04_mean       =   5.5086636302253E-06
(PID.TID 0000.0001) %MON trcstat_ptracer04_sd         =   2.3204316897759E-05
(PID.TID 0000.0001) %MON trcstat_ptracer04_del2       =   4.3506194403573E-08
(PID.TID 0000.0001) %MON trcstat_ptracer05_max        =   3.7183112927899E-01
(PID.TID 0000.0001) %MON trcstat_ptracer05_min        =  -6.7112170969080E-04
(PID.TID 0000.0001) %MON trcstat_ptracer05_mean       =   1.1079718195265E-01
(PID.TID 0000.0001) %MON trcstat_ptracer05_sd         =   7.7757792859703E-02
(PID.TID 0000.0001) %MON trcstat_ptracer05_del2       =   4.0403583467467E-05
(PID.TID 0000.0001) // =======================================================
(PID.TID 0000.0001) // End MONITOR ptracer field statistics
(PID.TID 0000.0001) // =======================================================
 Compute Stats, Diag. #    300  CPL_SLPr  vol(   0 ): 4.984E+14  Parms: SM      M1      
 Compute Stats, Diag. #    301  CPL_Qnet  vol(   0 ): 4.984E+14  Parms: SM      M1      
 Compute Stats, Diag. #    302  CPL_Qsw   vol(   0 ): 4.984E+14  Parms: SM      M1      
 Compute Stats, Diag. #    303  CPL_tauX  vol(   0 ): 4.984E+14  Parms: UM      M1      
 Compute Stats, Diag. #    304  CPL_tauY  vol(   0 ): 4.984E+14  Parms: UM      M1      
 Compute Stats, Diag. #    306  CPL_sFlx  vol(   0 ): 4.984E+14  Parms: SM      M1      
 Compute Stats, Diag. #    307  CPL_iceM  vol(   0 ): 4.984E+14  Parms: SM      M1      
 Compute Stats, Diag. #    309  CPL_aCO2  vol(   0 ): 4.984E+14  Parms: SM      M1      
 Compute Stats, Diag. #    310  CPL_wSpd  vol(   0 ): 4.984E+14  Parms: SM      M1      
 Compute Stats, Diag. #    311  CPL_icFr  vol(   0 ): 4.984E+14  Parms: SM P    M1      
 EXTERNAL_FIELDS_LOAD, 185414407 : iP,iLd,i0,i1=   12    1   12    1 ; Wght=  0.4902777778  0.5097222222
 DIC_FIELDS_LOAD, 185414407 : iP,iLd,i0,i1=   12    1   12    1 ; Wght=  0.4902777778  0.5097222222
 cg2d: Sum(rhs),rhsMax =   7.70518580332818E+01  1.14658659934171E+02
(PID.TID 0000.0001)      cg2d_init_res =   1.92584733854857E-02
(PID.TID 0000.0001)      cg2d_iters(min,last) =      -1      21
(PID.TID 0000.0001)      cg2d_last_res =   5.60468105675330E-10
(PID.TID 0000.0001) // =======================================================
(PID.TID 0000.0001) // Begin MONITOR dynamic field statistics
(PID.TID 0000.0001) // =======================================================
(PID.TID 0000.0001) %MON time_tsnumber                =             185414408
(PID.TID 0000.0001) %MON time_secondsf                =   6.6749186880000E+11
(PID.TID 0000.0001) %MON dynstat_eta_max              =   1.6833032639802E+00
(PID.TID 0000.0001) %MON dynstat_eta_min              =  -2.1717763466274E+01
(PID.TID 0000.0001) %MON dynstat_eta_mean             =  -6.9438666156661E-01
(PID.TID 0000.0001) %MON dynstat_eta_sd               =   3.9264512047851E+00
(PID.TID 0000.0001) %MON dynstat_eta_del2             =   5.9809613157157E-03
(PID.TID 0000.0001) %MON dynstat_uvel_max             =   4.9373786692364E-01
(PID.TID 0000.0001) %MON dynstat_uvel_min             =  -5.2620534738515E-01
(PID.TID 0000.0001) %MON dynstat_uvel_mean            =   2.5073181947997E-03
(PID.TID 0000.0001) %MON dynstat_uvel_sd              =   2.4971999374027E-02
(PID.TID 0000.0001) %MON dynstat_uvel_del2            =   1.6223011667311E-04
(PID.TID 0000.0001) %MON dynstat_vvel_max             =   4.5360562289451E-01
(PID.TID 0000.0001) %MON dynstat_vvel_min             =  -3.5366091404517E-01
(PID.TID 0000.0001) %MON dynstat_vvel_mean            =   2.4598512747288E-03
(PID.TID 0000.0001) %MON dynstat_vvel_sd              =   2.7142043563955E-02
(PID.TID 0000.0001) %MON dynstat_vvel_del2            =   1.5744995003573E-04
(PID.TID 0000.0001) %MON dynstat_wvel_max             =   5.4574487924571E-05
(PID.TID 0000.0001) %MON dynstat_wvel_min             =  -9.4653929284056E-05
(PID.TID 0000.0001) %MON dynstat_wvel_mean            =  -4.6272026752832E-09
(PID.TID 0000.0001) %MON dynstat_wvel_sd              =   5.5943559829912E-06
(PID.TID 0000.0001) %MON dynstat_wvel_del2            =   7.1185264093915E-08
(PID.TID 0000.0001) %MON dynstat_theta_max            =   3.2236292823208E+01
(PID.TID 0000.0001) %MON dynstat_theta_min            =  -1.7131993718839E+00
(PID.TID 0000.0001) %MON dynstat_theta_mean           =   9.0572647013803E+00
(PID.TID 0000.0001) %MON dynstat_theta_sd             =   4.5403174124096E+00
(PID.TID 0000.0001) %MON dynstat_theta_del2           =   4.3763954084512E-03
(PID.TID 0000.0001) %MON dynstat_salt_max             =   3.7498861763193E+01
(PID.TID 0000.0001) %MON dynstat_salt_min             =   3.0237272137155E+01
(PID.TID 0000.0001) %MON dynstat_salt_mean            =   3.4566998801789E+01
(PID.TID 0000.0001) %MON dynstat_salt_sd              =   4.4221725897265E-01
(PID.TID 0000.0001) %MON dynstat_salt_del2            =   1.0539907015186E-03
(PID.TID 0000.0001) %MON forcing_qnet_max             =   5.3202274563806E+02
(PID.TID 0000.0001) %MON forcing_qnet_min             =  -3.5437883278737E+02
(PID.TID 0000.0001) %MON forcing_qnet_mean            =   8.8463573221829E+00
(PID.TID 0000.0001) %MON forcing_qnet_sd              =   1.2029895968509E+02
(PID.TID 0000.0001) %MON forcing_qnet_del2            =   2.1528714412997E+00
(PID.TID 0000.0001) %MON forcing_qsw_max              =   0.0000000000000E+00
(PID.TID 0000.0001) %MON forcing_qsw_min              =  -4.1247603087858E+02
(PID.TID 0000.0001) %MON forcing_qsw_mean             =  -1.5736476900073E+02
(PID.TID 0000.0001) %MON forcing_qsw_sd               =   1.1136151238468E+02
(PID.TID 0000.0001) %MON forcing_qsw_del2             =   1.7831031633737E+00
(PID.TID 0000.0001) %MON forcing_empmr_max            =   1.7146733555659E-04
(PID.TID 0000.0001) %MON forcing_empmr_min            =  -7.7976143694142E-04
(PID.TID 0000.0001) %MON forcing_empmr_mean           =  -8.8965683436777E-06
(PID.TID 0000.0001) %MON forcing_empmr_sd             =   8.0352953448415E-05
(PID.TID 0000.0001) %MON forcing_empmr_del2           =   2.7962869825664E-06
(PID.TID 0000.0001) %MON forcing_fu_max               =   6.3080023327767E-01
(PID.TID 0000.0001) %MON forcing_fu_min               =  -3.7517809131379E-01
(PID.TID 0000.0001) %MON forcing_fu_mean              =  -4.2911451830617E-03
(PID.TID 0000.0001) %MON forcing_fu_sd                =   7.8728494154887E-02
(PID.TID 0000.0001) %MON forcing_fu_del2              =   1.2450692073404E-03
(PID.TID 0000.0001) %MON forcing_fv_max               =   4.1263074375851E-01
(PID.TID 0000.0001) %MON forcing_fv_min               =  -4.1934981687924E-01
(PID.TID 0000.0001) %MON forcing_fv_mean              =  -6.3426523210012E-03
(PID.TID 0000.0001) %MON forcing_fv_sd                =   6.9045272818809E-02
(PID.TID 0000.0001) %MON forcing_fv_del2              =   1.0712270511973E-03
(PID.TID 0000.0001) %MON trAdv_CFL_u_max              =   7.7118939655808E-03
(PID.TID 0000.0001) %MON trAdv_CFL_v_max              =   6.5673042530240E-03
(PID.TID 0000.0001) %MON trAdv_CFL_w_max              =   1.0599111307772E-02
(PID.TID 0000.0001) %MON advcfl_uvel_max              =   1.0430115314617E-02
(PID.TID 0000.0001) %MON advcfl_vvel_max              =   8.8818642876468E-03
(PID.TID 0000.0001) %MON advcfl_wvel_max              =   9.0851800976428E-03
(PID.TID 0000.0001) %MON advcfl_W_hf_max              =   1.0594916937059E-02
(PID.TID 0000.0001) %MON pe_b_mean                    =  -1.5808722697125E-02
(PID.TID 0000.0001) %MON ke_max                       =   1.4239592323823E-01
(PID.TID 0000.0001) %MON ke_mean                      =   6.7800346991181E-04
(PID.TID 0000.0001) %MON ke_vol                       =   1.4948940623614E+18
(PID.TID 0000.0001) %MON vort_r_min                   =  -2.5203219965875E-06
(PID.TID 0000.0001) %MON vort_r_max                   =   3.3609901267030E-06
(PID.TID 0000.0001) %MON vort_a_mean                  =  -5.3086686024823E-08
(PID.TID 0000.0001) %MON vort_a_sd                    =   8.4173724730808E-05
(PID.TID 0000.0001) %MON vort_p_mean                  =  -5.4952212065933E-08
(PID.TID 0000.0001) %MON vort_p_sd                    =   9.2000902885644E-05
(PID.TID 0000.0001) %MON surfExpan_theta_mean         =   9.8374915367498E-08
(PID.TID 0000.0001) %MON surfExpan_salt_mean          =   4.0708047407028E-08
(PID.TID 0000.0001) // =======================================================
(PID.TID 0000.0001) // End MONITOR dynamic field statistics
(PID.TID 0000.0001) // =======================================================
(PID.TID 0000.0001) // =======================================================
(PID.TID 0000.0001) // Begin MONITOR ptracer field statistics
(PID.TID 0000.0001) // =======================================================
(PID.TID 0000.0001) %MON trcstat_ptracer01_max        =   2.4559236549791E+00
(PID.TID 0000.0001) %MON trcstat_ptracer01_min        =   1.8039475613911E+00
(PID.TID 0000.0001) %MON trcstat_ptracer01_mean       =   2.2467073125853E+00
(PID.TID 0000.0001) %MON trcstat_ptracer01_sd         =   1.2424056390831E-01
(PID.TID 0000.0001) %MON trcstat_ptracer01_del2       =   5.3385646430724E-05
(PID.TID 0000.0001) %MON trcstat_ptracer02_max        =   2.5263679003904E+00
(PID.TID 0000.0001) %MON trcstat_ptracer02_min        =   2.0334592021876E+00
(PID.TID 0000.0001) %MON trcstat_ptracer02_mean       =   2.3606269456539E+00
(PID.TID 0000.0001) %MON trcstat_ptracer02_sd         =   6.7598648269992E-02
(PID.TID 0000.0001) %MON trcstat_ptracer02_del2       =   3.7326196150861E-05
(PID.TID 0000.0001) %MON trcstat_ptracer03_max        =   3.3820820770696E-03
(PID.TID 0000.0001) %MON trcstat_ptracer03_min        =   4.8026886181301E-05
(PID.TID 0000.0001) %MON trcstat_ptracer03_mean       =   2.1949935627663E-03
(PID.TID 0000.0001) %MON trcstat_ptracer03_sd         =   7.1471513115982E-04
(PID.TID 0000.0001) %MON trcstat_ptracer03_del2       =   3.7612114834361E-07
(PID.TID 0000.0001) %MON trcstat_ptracer04_max        =   2.8481705005578E-04
(PID.TID 0000.0001) %MON trcstat_ptracer04_min        =   3.3667983924276E-34
(PID.TID 0000.0001) %MON trcstat_ptracer04_mean       =   5.5085733564150E-06
(PID.TID 0000.0001) %MON trcstat_ptracer04_sd         =   2.3203940202260E-05
(PID.TID 0000.0001) %MON trcstat_ptracer04_del2       =   4.3517577902523E-08
(PID.TID 0000.0001) %MON trcstat_ptracer05_max        =   3.7186737346718E-01
(PID.TID 0000.0001) %MON trcstat_ptracer05_min        =  -6.7099155419638E-04
(PID.TID 0000.0001) %MON trcstat_ptracer05_mean       =   1.1079718862617E-01
(PID.TID 0000.0001) %MON trcstat_ptracer05_sd         =   7.7757791461774E-02
(PID.TID 0000.0001) %MON trcstat_ptracer05_del2       =   4.0409166229479E-05
(PID.TID 0000.0001) // =======================================================
(PID.TID 0000.0001) // End MONITOR ptracer field statistics
(PID.TID 0000.0001) // =======================================================
 Compute Stats, Diag. #    300  CPL_SLPr  vol(   0 ): 4.984E+14  Parms: SM      M1      
 Compute Stats, Diag. #    301  CPL_Qnet  vol(   0 ): 4.984E+14  Parms: SM      M1      
 Compute Stats, Diag. #    302  CPL_Qsw   vol(   0 ): 4.984E+14  Parms: SM      M1      
 Compute Stats, Diag. #    303  CPL_tauX  vol(   0 ): 4.984E+14  Parms: UM      M1      
 Compute Stats, Diag. #    304  CPL_tauY  vol(   0 ): 4.984E+14  Parms: UM      M1      
 Compute Stats, Diag. #    306  CPL_sFlx  vol(   0 ): 4.984E+14  Parms: SM      M1      
 Compute Stats, Diag. #    307  CPL_iceM  vol(   0 ): 4.984E+14  Parms: SM      M1      
 Compute Stats, Diag. #    309  CPL_aCO2  vol(   0 ): 4.984E+14  Parms: SM      M1      
 Compute Stats, Diag. #    310  CPL_wSpd  vol(   0 ): 4.984E+14  Parms: SM      M1      
 Compute Stats, Diag. #    311  CPL_icFr  vol(   0 ): 4.984E+14  Parms: SM P    M1      
 EXTERNAL_FIELDS_LOAD, 185414408 : iP,iLd,i0,i1=   12    1   12    1 ; Wght=  0.4888888889  0.5111111111
 DIC_FIELDS_LOAD, 185414408 : iP,iLd,i0,i1=   12    1   12    1 ; Wght=  0.4888888889  0.5111111111
 cg2d: Sum(rhs),rhsMax =   7.70477096994154E+01  1.14659876147101E+02
(PID.TID 0000.0001)      cg2d_init_res =   2.03449376610193E-02
(PID.TID 0000.0001)      cg2d_iters(min,last) =      -1      21
(PID.TID 0000.0001)      cg2d_last_res =   6.00969793535149E-10
(PID.TID 0000.0001) // =======================================================
(PID.TID 0000.0001) // Begin MONITOR dynamic field statistics
(PID.TID 0000.0001) // =======================================================
(PID.TID 0000.0001) %MON time_tsnumber                =             185414409
(PID.TID 0000.0001) %MON time_secondsf                =   6.6749187240000E+11
(PID.TID 0000.0001) %MON dynstat_eta_max              =   1.6824826845379E+00
(PID.TID 0000.0001) %MON dynstat_eta_min              =  -2.1717448753060E+01
(PID.TID 0000.0001) %MON dynstat_eta_mean             =  -6.9435664216945E-01
(PID.TID 0000.0001) %MON dynstat_eta_sd               =   3.9263099814022E+00
(PID.TID 0000.0001) %MON dynstat_eta_del2             =   5.9801686672814E-03
(PID.TID 0000.0001) %MON dynstat_uvel_max             =   4.6728604941847E-01
(PID.TID 0000.0001) %MON dynstat_uvel_min             =  -5.2487652442754E-01
(PID.TID 0000.0001) %MON dynstat_uvel_mean            =   2.5102525766688E-03
(PID.TID 0000.0001) %MON dynstat_uvel_sd              =   2.4949984329640E-02
(PID.TID 0000.0001) %MON dynstat_uvel_del2            =   1.6223381773965E-04
(PID.TID 0000.0001) %MON dynstat_vvel_max             =   4.7357675908734E-01
(PID.TID 0000.0001) %MON dynstat_vvel_min             =  -3.4266089279617E-01
(PID.TID 0000.0001) %MON dynstat_vvel_mean            =   2.4588534120074E-03
(PID.TID 0000.0001) %MON dynstat_vvel_sd              =   2.7135759797810E-02
(PID.TID 0000.0001) %MON dynstat_vvel_del2            =   1.5725387143361E-04
(PID.TID 0000.0001) %MON dynstat_wvel_max             =   5.2514510031842E-05
(PID.TID 0000.0001) %MON dynstat_wvel_min             =  -8.9375336598617E-05
(PID.TID 0000.0001) %MON dynstat_wvel_mean            =  -4.4671721962640E-09
(PID.TID 0000.0001) %MON dynstat_wvel_sd              =   5.5847383274244E-06
(PID.TID 0000.0001) %MON dynstat_wvel_del2            =   7.1310762769538E-08
(PID.TID 0000.0001) %MON dynstat_theta_max            =   3.2237248740964E+01
(PID.TID 0000.0001) %MON dynstat_theta_min            =  -1.7131831864266E+00
(PID.TID 0000.0001) %MON dynstat_theta_mean           =   9.0572620932861E+00
(PID.TID 0000.0001) %MON dynstat_theta_sd             =   4.5403109508877E+00
(PID.TID 0000.0001) %MON dynstat_theta_del2           =   4.3763002117475E-03
(PID.TID 0000.0001) %MON dynstat_salt_max             =   3.7498804579638E+01
(PID.TID 0000.0001) %MON dynstat_salt_min             =   3.0239459499249E+01
(PID.TID 0000.0001) %MON dynstat_salt_mean            =   3.4566998485154E+01
(PID.TID 0000.0001) %MON dynstat_salt_sd              =   4.4221898345211E-01
(PID.TID 0000.0001) %MON dynstat_salt_del2            =   1.0540130954612E-03
(PID.TID 0000.0001) %MON forcing_qnet_max             =   5.0278799888802E+02
(PID.TID 0000.0001) %MON forcing_qnet_min             =  -3.8387239650612E+02
(PID.TID 0000.0001) %MON forcing_qnet_mean            =   8.6462266508244E+00
(PID.TID 0000.0001) %MON forcing_qnet_sd              =   1.1991440320321E+02
(PID.TID 0000.0001) %MON forcing_qnet_del2            =   2.1547773039746E+00
(PID.TID 0000.0001) %MON forcing_qsw_max              =   0.0000000000000E+00
(PID.TID 0000.0001) %MON forcing_qsw_min              =  -4.1215169366959E+02
(PID.TID 0000.0001) %MON forcing_qsw_mean             =  -1.5758850879750E+02
(PID.TID 0000.0001) %MON forcing_qsw_sd               =   1.1154961603148E+02
(PID.TID 0000.0001) %MON forcing_qsw_del2             =   1.7937883300608E+00
(PID.TID 0000.0001) %MON forcing_empmr_max            =   1.6726938221515E-04
(PID.TID 0000.0001) %MON forcing_empmr_min            =  -7.5551494588473E-04
(PID.TID 0000.0001) %MON forcing_empmr_mean           =  -8.5888830760168E-06
(PID.TID 0000.0001) %MON forcing_empmr_sd             =   7.9602899446020E-05
(PID.TID 0000.0001) %MON forcing_empmr_del2           =   2.7396975452885E-06
(PID.TID 0000.0001) %MON forcing_fu_max               =   6.3688774719056E-01
(PID.TID 0000.0001) %MON forcing_fu_min               =  -3.8144443375003E-01
(PID.TID 0000.0001) %MON forcing_fu_mean              =  -4.3853807179447E-03
(PID.TID 0000.0001) %MON forcing_fu_sd                =   7.8752307433432E-02
(PID.TID 0000.0001) %MON forcing_fu_del2              =   1.2849000336892E-03
(PID.TID 0000.0001) %MON forcing_fv_max               =   4.6650678768092E-01
(PID.TID 0000.0001) %MON forcing_fv_min               =  -4.3508121257649E-01
(PID.TID 0000.0001) %MON forcing_fv_mean              =  -6.4124197323062E-03
(PID.TID 0000.0001) %MON forcing_fv_sd                =   6.9020922227046E-02
(PID.TID 0000.0001) %MON forcing_fv_del2              =   1.0893820853627E-03
(PID.TID 0000.0001) %MON trAdv_CFL_u_max              =   9.1307503817898E-03
(PID.TID 0000.0001) %MON trAdv_CFL_v_max              =   7.9090050075463E-03
(PID.TID 0000.0001) %MON trAdv_CFL_w_max              =   1.0066072993540E-02
(PID.TID 0000.0001) %MON advcfl_uvel_max              =   9.7044892089183E-03
(PID.TID 0000.0001) %MON advcfl_vvel_max              =   1.0696427478832E-02
(PID.TID 0000.0001) %MON advcfl_wvel_max              =   8.6272746575852E-03
(PID.TID 0000.0001) %MON advcfl_W_hf_max              =   1.0060906478606E-02
(PID.TID 0000.0001) %MON pe_b_mean                    =  -1.5808802812387E-02
(PID.TID 0000.0001) %MON ke_max                       =   1.4940244222730E-01
(PID.TID 0000.0001) %MON ke_mean                      =   6.7729599102510E-04
(PID.TID 0000.0001) %MON ke_vol                       =   1.4948940778595E+18
(PID.TID 0000.0001) %MON vort_r_min                   =  -2.8406343789481E-06
(PID.TID 0000.0001) %MON vort_r_max                   =   3.5685287825503E-06
(PID.TID 0000.0001) %MON vort_a_mean                  =  -5.3086686024838E-08
(PID.TID 0000.0001) %MON vort_a_sd                    =   8.4173724884122E-05
(PID.TID 0000.0001) %MON vort_p_mean                  =  -5.4952211483753E-08
(PID.TID 0000.0001) %MON vort_p_sd                    =   9.2000902755688E-05
(PID.TID 0000.0001) %MON surfExpan_theta_mean         =   9.7798606994028E-08
(PID.TID 0000.0001) %MON surfExpan_salt_mean          =   3.9548992548195E-08
(PID.TID 0000.0001) // =======================================================
(PID.TID 0000.0001) // End MONITOR dynamic field statistics
(PID.TID 0000.0001) // =======================================================
(PID.TID 0000.0001) // =======================================================
(PID.TID 0000.0001) // Begin MONITOR ptracer field statistics
(PID.TID 0000.0001) // =======================================================
(PID.TID 0000.0001) %MON trcstat_ptracer01_max        =   2.4559236272160E+00
(PID.TID 0000.0001) %MON trcstat_ptracer01_min        =   1.8039520138137E+00
(PID.TID 0000.0001) %MON trcstat_ptracer01_mean       =   2.2467073013930E+00
(PID.TID 0000.0001) %MON trcstat_ptracer01_sd         =   1.2424056474964E-01
(PID.TID 0000.0001) %MON trcstat_ptracer01_del2       =   5.3392626057071E-05
(PID.TID 0000.0001) %MON trcstat_ptracer02_max        =   2.5263678759792E+00
(PID.TID 0000.0001) %MON trcstat_ptracer02_min        =   2.0334610072087E+00
(PID.TID 0000.0001) %MON trcstat_ptracer02_mean       =   2.3606269205333E+00
(PID.TID 0000.0001) %MON trcstat_ptracer02_sd         =   6.7598723261261E-02
(PID.TID 0000.0001) %MON trcstat_ptracer02_del2       =   3.7327721052459E-05
(PID.TID 0000.0001) %MON trcstat_ptracer03_max        =   3.3820820204819E-03
(PID.TID 0000.0001) %MON trcstat_ptracer03_min        =   4.8027346878850E-05
(PID.TID 0000.0001) %MON trcstat_ptracer03_mean       =   2.1949936289007E-03
(PID.TID 0000.0001) %MON trcstat_ptracer03_sd         =   7.1471480061496E-04
(PID.TID 0000.0001) %MON trcstat_ptracer03_del2       =   3.7614848434953E-07
(PID.TID 0000.0001) %MON trcstat_ptracer04_max        =   2.8482516036802E-04
(PID.TID 0000.0001) %MON trcstat_ptracer04_min        =   3.3580862057877E-34
(PID.TID 0000.0001) %MON trcstat_ptracer04_mean       =   5.5084839107371E-06
(PID.TID 0000.0001) %MON trcstat_ptracer04_sd         =   2.3203517723010E-05
(PID.TID 0000.0001) %MON trcstat_ptracer04_del2       =   4.3535856583147E-08
(PID.TID 0000.0001) %MON trcstat_ptracer05_max        =   3.7190384833097E-01
(PID.TID 0000.0001) %MON trcstat_ptracer05_min        =  -6.7086024601831E-04
(PID.TID 0000.0001) %MON trcstat_ptracer05_mean       =   1.1079719543167E-01
(PID.TID 0000.0001) %MON trcstat_ptracer05_sd         =   7.7757790669631E-02
(PID.TID 0000.0001) %MON trcstat_ptracer05_del2       =   4.0415916425689E-05
(PID.TID 0000.0001) // =======================================================
(PID.TID 0000.0001) // End MONITOR ptracer field statistics
(PID.TID 0000.0001) // =======================================================
 Compute Stats, Diag. #    300  CPL_SLPr  vol(   0 ): 4.984E+14  Parms: SM      M1      
 Compute Stats, Diag. #    301  CPL_Qnet  vol(   0 ): 4.984E+14  Parms: SM      M1      
 Compute Stats, Diag. #    302  CPL_Qsw   vol(   0 ): 4.984E+14  Parms: SM      M1      
 Compute Stats, Diag. #    303  CPL_tauX  vol(   0 ): 4.984E+14  Parms: UM      M1      
 Compute Stats, Diag. #    304  CPL_tauY  vol(   0 ): 4.984E+14  Parms: UM      M1      
 Compute Stats, Diag. #    306  CPL_sFlx  vol(   0 ): 4.984E+14  Parms: SM      M1      
 Compute Stats, Diag. #    307  CPL_iceM  vol(   0 ): 4.984E+14  Parms: SM      M1      
 Compute Stats, Diag. #    309  CPL_aCO2  vol(   0 ): 4.984E+14  Parms: SM      M1      
 Compute Stats, Diag. #    310  CPL_wSpd  vol(   0 ): 4.984E+14  Parms: SM      M1      
 Compute Stats, Diag. #    311  CPL_icFr  vol(   0 ): 4.984E+14  Parms: SM P    M1      
 EXTERNAL_FIELDS_LOAD, 185414409 : iP,iLd,i0,i1=   12    1   12    1 ; Wght=  0.4875000000  0.5125000000
 DIC_FIELDS_LOAD, 185414409 : iP,iLd,i0,i1=   12    1   12    1 ; Wght=  0.4875000000  0.5125000000
 cg2d: Sum(rhs),rhsMax =   7.70437345223302E+01  1.14660878105224E+02
(PID.TID 0000.0001)      cg2d_init_res =   1.99886599265377E-02
(PID.TID 0000.0001)      cg2d_iters(min,last) =      -1      21
(PID.TID 0000.0001)      cg2d_last_res =   5.94828900953167E-10
(PID.TID 0000.0001) // =======================================================
(PID.TID 0000.0001) // Begin MONITOR dynamic field statistics
(PID.TID 0000.0001) // =======================================================
(PID.TID 0000.0001) %MON time_tsnumber                =             185414410
(PID.TID 0000.0001) %MON time_secondsf                =   6.6749187600000E+11
(PID.TID 0000.0001) %MON dynstat_eta_max              =   1.6814999087198E+00
(PID.TID 0000.0001) %MON dynstat_eta_min              =  -2.1717091644330E+01
(PID.TID 0000.0001) %MON dynstat_eta_mean             =  -6.9432688507456E-01
(PID.TID 0000.0001) %MON dynstat_eta_sd               =   3.9261684199484E+00
(PID.TID 0000.0001) %MON dynstat_eta_del2             =   5.9794300774356E-03
(PID.TID 0000.0001) %MON dynstat_uvel_max             =   4.3904506605063E-01
(PID.TID 0000.0001) %MON dynstat_uvel_min             =  -5.2337779609694E-01
(PID.TID 0000.0001) %MON dynstat_uvel_mean            =   2.5129640550459E-03
(PID.TID 0000.0001) %MON dynstat_uvel_sd              =   2.4931012374147E-02
(PID.TID 0000.0001) %MON dynstat_uvel_del2            =   1.6239390259010E-04
(PID.TID 0000.0001) %MON dynstat_vvel_max             =   5.1920937005819E-01
(PID.TID 0000.0001) %MON dynstat_vvel_min             =  -3.1915541581595E-01
(PID.TID 0000.0001) %MON dynstat_vvel_mean            =   2.4571806943328E-03
(PID.TID 0000.0001) %MON dynstat_vvel_sd              =   2.7125727534680E-02
(PID.TID 0000.0001) %MON dynstat_vvel_del2            =   1.5714635345001E-04
(PID.TID 0000.0001) %MON dynstat_wvel_max             =   4.8429610100231E-05
(PID.TID 0000.0001) %MON dynstat_wvel_min             =  -7.9483649301719E-05
(PID.TID 0000.0001) %MON dynstat_wvel_mean            =  -4.4281391208269E-09
(PID.TID 0000.0001) %MON dynstat_wvel_sd              =   5.5761692229571E-06
(PID.TID 0000.0001) %MON dynstat_wvel_del2            =   7.1489136798608E-08
(PID.TID 0000.0001) %MON dynstat_theta_max            =   3.2238188859563E+01
(PID.TID 0000.0001) %MON dynstat_theta_min            =  -1.7131667073966E+00
(PID.TID 0000.0001) %MON dynstat_theta_mean           =   9.0572595688050E+00
(PID.TID 0000.0001) %MON dynstat_theta_sd             =   4.5403049292483E+00
(PID.TID 0000.0001) %MON dynstat_theta_del2           =   4.3761941894652E-03
(PID.TID 0000.0001) %MON dynstat_salt_max             =   3.7498758032282E+01
(PID.TID 0000.0001) %MON dynstat_salt_min             =   3.0241771596599E+01
(PID.TID 0000.0001) %MON dynstat_salt_mean            =   3.4566998171469E+01
(PID.TID 0000.0001) %MON dynstat_salt_sd              =   4.4222071909744E-01
(PID.TID 0000.0001) %MON dynstat_salt_del2            =   1.0540201432161E-03
(PID.TID 0000.0001) %MON forcing_qnet_max             =   4.8949949914605E+02
(PID.TID 0000.0001) %MON forcing_qnet_min             =  -3.8944981819439E+02
(PID.TID 0000.0001) %MON forcing_qnet_mean            =   8.3591217241647E+00
(PID.TID 0000.0001) %MON forcing_qnet_sd              =   1.1960636981181E+02
(PID.TID 0000.0001) %MON forcing_qnet_del2            =   2.1590665223565E+00
(PID.TID 0000.0001) %MON forcing_qsw_max              =   0.0000000000000E+00
(PID.TID 0000.0001) %MON forcing_qsw_min              =  -4.1155840822896E+02
(PID.TID 0000.0001) %MON forcing_qsw_mean             =  -1.5787019567597E+02
(PID.TID 0000.0001) %MON forcing_qsw_sd               =   1.1183888167614E+02
(PID.TID 0000.0001) %MON forcing_qsw_del2             =   1.7845377886720E+00
(PID.TID 0000.0001) %MON forcing_empmr_max            =   1.6265571183854E-04
(PID.TID 0000.0001) %MON forcing_empmr_min            =  -7.2433780721101E-04
(PID.TID 0000.0001) %MON forcing_empmr_mean           =  -8.5138354829762E-06
(PID.TID 0000.0001) %MON forcing_empmr_sd             =   7.9356833096445E-05
(PID.TID 0000.0001) %MON forcing_empmr_del2           =   2.7295857569234E-06
(PID.TID 0000.0001) %MON forcing_fu_max               =   6.5187096053845E-01
(PID.TID 0000.0001) %MON forcing_fu_min               =  -3.9484624030987E-01
(PID.TID 0000.0001) %MON forcing_fu_mean              =  -4.4844118625596E-03
(PID.TID 0000.0001) %MON forcing_fu_sd                =   7.8822334835511E-02
(PID.TID 0000.0001) %MON forcing_fu_del2              =   1.3267018022207E-03
(PID.TID 0000.0001) %MON forcing_fv_max               =   4.9622363247197E-01
(PID.TID 0000.0001) %MON forcing_fv_min               =  -4.4873158010547E-01
(PID.TID 0000.0001) %MON forcing_fv_mean              =  -6.4926133033192E-03
(PID.TID 0000.0001) %MON forcing_fv_sd                =   6.8972264959435E-02
(PID.TID 0000.0001) %MON forcing_fv_del2              =   1.1084316155733E-03
(PID.TID 0000.0001) %MON trAdv_CFL_u_max              =   1.0501349934611E-02
(PID.TID 0000.0001) %MON trAdv_CFL_v_max              =   8.8912686857189E-03
(PID.TID 0000.0001) %MON trAdv_CFL_w_max              =   9.6923457770883E-03
(PID.TID 0000.0001) %MON advcfl_uvel_max              =   8.5100223897538E-03
(PID.TID 0000.0001) %MON advcfl_vvel_max              =   1.2024871281729E-02
(PID.TID 0000.0001) %MON advcfl_wvel_max              =   7.7520150075475E-03
(PID.TID 0000.0001) %MON advcfl_W_hf_max              =   9.0401876684000E-03
(PID.TID 0000.0001) %MON pe_b_mean                    =  -1.5809054339844E-02
(PID.TID 0000.0001) %MON ke_max                       =   1.4921812322621E-01
(PID.TID 0000.0001) %MON ke_mean                      =   6.7656138956580E-04
(PID.TID 0000.0001) %MON ke_vol                       =   1.4948940928216E+18
(PID.TID 0000.0001) %MON vort_r_min                   =  -3.2703461645503E-06
(PID.TID 0000.0001) %MON vort_r_max                   =   3.5881567403639E-06
(PID.TID 0000.0001) %MON vort_a_mean                  =  -5.3086686024874E-08
(PID.TID 0000.0001) %MON vort_a_sd                    =   8.4173724930039E-05
(PID.TID 0000.0001) %MON vort_p_mean                  =  -5.4952210923982E-08
(PID.TID 0000.0001) %MON vort_p_sd                    =   9.2000901940464E-05
(PID.TID 0000.0001) %MON surfExpan_theta_mean         =   9.3806329528778E-08
(PID.TID 0000.0001) %MON surfExpan_salt_mean          =   3.8535389254775E-08
(PID.TID 0000.0001) // =======================================================
(PID.TID 0000.0001) // End MONITOR dynamic field statistics
(PID.TID 0000.0001) // =======================================================
(PID.TID 0000.0001) // =======================================================
(PID.TID 0000.0001) // Begin MONITOR ptracer field statistics
(PID.TID 0000.0001) // =======================================================
(PID.TID 0000.0001) %MON trcstat_ptracer01_max        =   2.4559235998108E+00
(PID.TID 0000.0001) %MON trcstat_ptracer01_min        =   1.8039568990290E+00
(PID.TID 0000.0001) %MON trcstat_ptracer01_mean       =   2.2467072901129E+00
(PID.TID 0000.0001) %MON trcstat_ptracer01_sd         =   1.2424056708393E-01
(PID.TID 0000.0001) %MON trcstat_ptracer01_del2       =   5.3398999883900E-05
(PID.TID 0000.0001) %MON trcstat_ptracer02_max        =   2.5263678517708E+00
(PID.TID 0000.0001) %MON trcstat_ptracer02_min        =   2.0334628455667E+00
(PID.TID 0000.0001) %MON trcstat_ptracer02_mean       =   2.3606268956141E+00
(PID.TID 0000.0001) %MON trcstat_ptracer02_sd         =   6.7598798034619E-02
(PID.TID 0000.0001) %MON trcstat_ptracer02_del2       =   3.7328762446309E-05
(PID.TID 0000.0001) %MON trcstat_ptracer03_max        =   3.3820819581521E-03
(PID.TID 0000.0001) %MON trcstat_ptracer03_min        =   4.8027817623342E-05
(PID.TID 0000.0001) %MON trcstat_ptracer03_mean       =   2.1949936940350E-03
(PID.TID 0000.0001) %MON trcstat_ptracer03_sd         =   7.1471448393689E-04
(PID.TID 0000.0001) %MON trcstat_ptracer03_del2       =   3.7617139099673E-07
(PID.TID 0000.0001) %MON trcstat_ptracer04_max        =   2.8483356556932E-04
(PID.TID 0000.0001) %MON trcstat_ptracer04_min        =   3.3248016757441E-34
(PID.TID 0000.0001) %MON trcstat_ptracer04_mean       =   5.5083954398461E-06
(PID.TID 0000.0001) %MON trcstat_ptracer04_sd         =   2.3203168423038E-05
(PID.TID 0000.0001) %MON trcstat_ptracer04_del2       =   4.3552111489411E-08
(PID.TID 0000.0001) %MON trcstat_ptracer05_max        =   3.7194068005789E-01
(PID.TID 0000.0001) %MON trcstat_ptracer05_min        =  -6.7072784995466E-04
(PID.TID 0000.0001) %MON trcstat_ptracer05_mean       =   1.1079720239259E-01
(PID.TID 0000.0001) %MON trcstat_ptracer05_sd         =   7.7757790849227E-02
(PID.TID 0000.0001) %MON trcstat_ptracer05_del2       =   4.0421977490962E-05
(PID.TID 0000.0001) // =======================================================
(PID.TID 0000.0001) // End MONITOR ptracer field statistics
(PID.TID 0000.0001) // =======================================================
 Compute Stats, Diag. #    300  CPL_SLPr  vol(   0 ): 4.984E+14  Parms: SM      M1      
 Compute Stats, Diag. #    301  CPL_Qnet  vol(   0 ): 4.984E+14  Parms: SM      M1      
 Compute Stats, Diag. #    302  CPL_Qsw   vol(   0 ): 4.984E+14  Parms: SM      M1      
 Compute Stats, Diag. #    303  CPL_tauX  vol(   0 ): 4.984E+14  Parms: UM      M1      
 Compute Stats, Diag. #    304  CPL_tauY  vol(   0 ): 4.984E+14  Parms: UM      M1      
 Compute Stats, Diag. #    306  CPL_sFlx  vol(   0 ): 4.984E+14  Parms: SM      M1      
 Compute Stats, Diag. #    307  CPL_iceM  vol(   0 ): 4.984E+14  Parms: SM      M1      
 Compute Stats, Diag. #    309  CPL_aCO2  vol(   0 ): 4.984E+14  Parms: SM      M1      
 Compute Stats, Diag. #    310  CPL_wSpd  vol(   0 ): 4.984E+14  Parms: SM      M1      
 Compute Stats, Diag. #    311  CPL_icFr  vol(   0 ): 4.984E+14  Parms: SM P    M1      
(PID.TID 0000.0001) DIAGSTATS_CLOSE_IO: close file: cplStDiag.0185414400.txt , unit=     9
(PID.TID 0000.0001) %CHECKPOINT 185414410 ckptA
(PID.TID 0000.0001)   Seconds in section "ALL                    [THE_MODEL_MAIN]":
(PID.TID 0000.0001)           User time:   14.927943948656321
(PID.TID 0000.0001)         System time:  0.80846299976110458
(PID.TID 0000.0001)     Wall clock time:   15.763472080230713
(PID.TID 0000.0001)          No. starts:           1
(PID.TID 0000.0001)           No. stops:           1
(PID.TID 0000.0001)   Seconds in section "INITIALISE_FIXED       [THE_MODEL_MAIN]":
(PID.TID 0000.0001)           User time:  0.13758999854326248
(PID.TID 0000.0001)         System time:   2.2047996520996094E-002
(PID.TID 0000.0001)     Wall clock time:  0.15987300872802734
(PID.TID 0000.0001)          No. starts:           1
(PID.TID 0000.0001)           No. stops:           1
(PID.TID 0000.0001)   Seconds in section "THE_MAIN_LOOP          [THE_MODEL_MAIN]":
(PID.TID 0000.0001)           User time:   14.790319323539734
(PID.TID 0000.0001)         System time:  0.78636899590492249
(PID.TID 0000.0001)     Wall clock time:   15.603525876998901
(PID.TID 0000.0001)          No. starts:           1
(PID.TID 0000.0001)           No. stops:           1
(PID.TID 0000.0001)   Seconds in section "INITIALISE_VARIA    [THE_MAIN_LOOP]":
(PID.TID 0000.0001)           User time:  0.51573999226093292
(PID.TID 0000.0001)         System time:  0.71672399342060089
(PID.TID 0000.0001)     Wall clock time:   1.2536208629608154
(PID.TID 0000.0001)          No. starts:           1
(PID.TID 0000.0001)           No. stops:           1
(PID.TID 0000.0001)   Seconds in section "MAIN LOOP           [THE_MAIN_LOOP]":
(PID.TID 0000.0001)           User time:   14.274557709693909
(PID.TID 0000.0001)         System time:   6.9631993770599365E-002
(PID.TID 0000.0001)     Wall clock time:   14.349875211715698
(PID.TID 0000.0001)          No. starts:           1
(PID.TID 0000.0001)           No. stops:           1
(PID.TID 0000.0001)   Seconds in section "MAIN_DO_LOOP        [THE_MAIN_LOOP]":
(PID.TID 0000.0001)           User time:   14.274486303329468
(PID.TID 0000.0001)         System time:   6.9626986980438232E-002
(PID.TID 0000.0001)     Wall clock time:   14.349799394607544
(PID.TID 0000.0001)          No. starts:          10
(PID.TID 0000.0001)           No. stops:          10
(PID.TID 0000.0001)   Seconds in section "FORWARD_STEP        [MAIN_DO_LOOP]":
(PID.TID 0000.0001)           User time:   14.274333417415619
(PID.TID 0000.0001)         System time:   6.9618940353393555E-002
(PID.TID 0000.0001)     Wall clock time:   14.349637985229492
(PID.TID 0000.0001)          No. starts:          10
(PID.TID 0000.0001)           No. stops:          10
(PID.TID 0000.0001)   Seconds in section "DO_STATEVARS_DIAGS  [FORWARD_STEP]":
(PID.TID 0000.0001)           User time:   1.1540055274963379E-003
(PID.TID 0000.0001)         System time:   1.0597705841064453E-004
(PID.TID 0000.0001)     Wall clock time:   1.2624263763427734E-003
(PID.TID 0000.0001)          No. starts:          30
(PID.TID 0000.0001)           No. stops:          30
(PID.TID 0000.0001)   Seconds in section "LOAD_FIELDS_DRIVER  [FORWARD_STEP]":
(PID.TID 0000.0001)           User time:   4.7764778137207031E-003
(PID.TID 0000.0001)         System time:   1.9305944442749023E-004
(PID.TID 0000.0001)     Wall clock time:   4.9731731414794922E-003
(PID.TID 0000.0001)          No. starts:          10
(PID.TID 0000.0001)           No. stops:          10
(PID.TID 0000.0001)   Seconds in section "EXTERNAL_FLDS_LOAD [LOAD_FLDS_DRIVER]":
(PID.TID 0000.0001)           User time:   3.5663247108459473E-003
(PID.TID 0000.0001)         System time:   3.9935111999511719E-006
(PID.TID 0000.0001)     Wall clock time:   3.5698413848876953E-003
(PID.TID 0000.0001)          No. starts:          10
(PID.TID 0000.0001)           No. stops:          10
(PID.TID 0000.0001)   Seconds in section "CPL_EXPORT-IMPORT  [FORWARD_STEP]":
(PID.TID 0000.0001)           User time:   6.8264305591583252E-002
(PID.TID 0000.0001)         System time:   0.0000000000000000
(PID.TID 0000.0001)     Wall clock time:   6.8282365798950195E-002
(PID.TID 0000.0001)          No. starts:          10
(PID.TID 0000.0001)           No. stops:          10
(PID.TID 0000.0001)   Seconds in section "DO_ATMOSPHERIC_PHYS [FORWARD_STEP]":
(PID.TID 0000.0001)           User time:   9.1195106506347656E-005
(PID.TID 0000.0001)         System time:   0.0000000000000000
(PID.TID 0000.0001)     Wall clock time:   9.2267990112304688E-005
(PID.TID 0000.0001)          No. starts:          10
(PID.TID 0000.0001)           No. stops:          10
(PID.TID 0000.0001)   Seconds in section "DO_OCEANIC_PHYS     [FORWARD_STEP]":
(PID.TID 0000.0001)           User time:   1.0364677309989929
(PID.TID 0000.0001)         System time:   0.0000000000000000
(PID.TID 0000.0001)     Wall clock time:   1.0365180969238281
(PID.TID 0000.0001)          No. starts:          10
(PID.TID 0000.0001)           No. stops:          10
(PID.TID 0000.0001)   Seconds in section "DYNAMICS            [FORWARD_STEP]":
(PID.TID 0000.0001)           User time:   1.8536086678504944
(PID.TID 0000.0001)         System time:   0.0000000000000000
(PID.TID 0000.0001)     Wall clock time:   1.8582768440246582
(PID.TID 0000.0001)          No. starts:          10
(PID.TID 0000.0001)           No. stops:          10
(PID.TID 0000.0001)   Seconds in section "UPDATE_R_STAR       [FORWARD_STEP]":
(PID.TID 0000.0001)           User time:  0.12462913990020752
(PID.TID 0000.0001)         System time:   0.0000000000000000
(PID.TID 0000.0001)     Wall clock time:  0.12465286254882812
(PID.TID 0000.0001)          No. starts:          10
(PID.TID 0000.0001)           No. stops:          10
(PID.TID 0000.0001)   Seconds in section "UPDATE_CG2D         [FORWARD_STEP]":
(PID.TID 0000.0001)           User time:   4.1866898536682129E-002
(PID.TID 0000.0001)         System time:   0.0000000000000000
(PID.TID 0000.0001)     Wall clock time:   4.1885614395141602E-002
(PID.TID 0000.0001)          No. starts:          10
(PID.TID 0000.0001)           No. stops:          10
(PID.TID 0000.0001)   Seconds in section "SOLVE_FOR_PRESSURE  [FORWARD_STEP]":
(PID.TID 0000.0001)           User time:  0.25411689281463623
(PID.TID 0000.0001)         System time:   0.0000000000000000
(PID.TID 0000.0001)     Wall clock time:  0.25413393974304199
(PID.TID 0000.0001)          No. starts:          10
(PID.TID 0000.0001)           No. stops:          10
(PID.TID 0000.0001)   Seconds in section "MOM_CORRECTION_STEP [FORWARD_STEP]":
(PID.TID 0000.0001)           User time:   6.8525433540344238E-002
(PID.TID 0000.0001)         System time:   0.0000000000000000
(PID.TID 0000.0001)     Wall clock time:   6.8540334701538086E-002
(PID.TID 0000.0001)          No. starts:          10
(PID.TID 0000.0001)           No. stops:          10
(PID.TID 0000.0001)   Seconds in section "INTEGR_CONTINUITY   [FORWARD_STEP]":
(PID.TID 0000.0001)           User time:  0.11815822124481201
(PID.TID 0000.0001)         System time:   0.0000000000000000
(PID.TID 0000.0001)     Wall clock time:  0.11817479133605957
(PID.TID 0000.0001)          No. starts:          10
(PID.TID 0000.0001)           No. stops:          10
(PID.TID 0000.0001)   Seconds in section "CALC_R_STAR         [FORWARD_STEP]":
(PID.TID 0000.0001)           User time:   2.2351861000061035E-002
(PID.TID 0000.0001)         System time:   0.0000000000000000
(PID.TID 0000.0001)     Wall clock time:   2.2361993789672852E-002
(PID.TID 0000.0001)          No. starts:          10
(PID.TID 0000.0001)           No. stops:          10
(PID.TID 0000.0001)   Seconds in section "BLOCKING_EXCHANGES  [FORWARD_STEP]":
(PID.TID 0000.0001)           User time:  0.19548928737640381
(PID.TID 0000.0001)         System time:   6.8300962448120117E-004
(PID.TID 0000.0001)     Wall clock time:  0.19619703292846680
(PID.TID 0000.0001)          No. starts:          20
(PID.TID 0000.0001)           No. stops:          20
(PID.TID 0000.0001)   Seconds in section "THERMODYNAMICS      [FORWARD_STEP]":
(PID.TID 0000.0001)           User time:   8.5790833234786987
(PID.TID 0000.0001)         System time:   9.6349716186523438E-003
(PID.TID 0000.0001)     Wall clock time:   8.5894813537597656
(PID.TID 0000.0001)          No. starts:          10
(PID.TID 0000.0001)           No. stops:          10
(PID.TID 0000.0001)   Seconds in section "TRC_CORRECTION_STEP [FORWARD_STEP]":
(PID.TID 0000.0001)           User time:   7.3909759521484375E-005
(PID.TID 0000.0001)         System time:   3.0398368835449219E-006
(PID.TID 0000.0001)     Wall clock time:   7.8201293945312500E-005
(PID.TID 0000.0001)          No. starts:          10
(PID.TID 0000.0001)           No. stops:          10
(PID.TID 0000.0001)   Seconds in section "GCHEM_FORCING_SEP  [FORWARD_STEP]":
(PID.TID 0000.0001)           User time:  0.67215919494628906
(PID.TID 0000.0001)         System time:   3.7890076637268066E-003
(PID.TID 0000.0001)     Wall clock time:  0.67599487304687500
(PID.TID 0000.0001)          No. starts:          10
(PID.TID 0000.0001)           No. stops:          10
(PID.TID 0000.0001)   Seconds in section "DO_STATEVARS_TAVE   [FORWARD_STEP]":
(PID.TID 0000.0001)           User time:   8.6784362792968750E-005
(PID.TID 0000.0001)         System time:   2.9802322387695312E-006
(PID.TID 0000.0001)     Wall clock time:   9.0837478637695312E-005
(PID.TID 0000.0001)          No. starts:          10
(PID.TID 0000.0001)           No. stops:          10
(PID.TID 0000.0001)   Seconds in section "MONITOR             [FORWARD_STEP]":
(PID.TID 0000.0001)           User time:  0.72824144363403320
(PID.TID 0000.0001)         System time:   6.8902969360351562E-004
(PID.TID 0000.0001)     Wall clock time:  0.72909832000732422
(PID.TID 0000.0001)          No. starts:          10
(PID.TID 0000.0001)           No. stops:          10
(PID.TID 0000.0001)   Seconds in section "DO_THE_MODEL_IO     [FORWARD_STEP]":
(PID.TID 0000.0001)           User time:  0.43881249427795410
(PID.TID 0000.0001)         System time:   3.0429005622863770E-002
(PID.TID 0000.0001)     Wall clock time:  0.46941781044006348
(PID.TID 0000.0001)          No. starts:          10
(PID.TID 0000.0001)           No. stops:          10
(PID.TID 0000.0001)   Seconds in section "PTRACERS_RESET      [FORWARD_STEP]":
(PID.TID 0000.0001)           User time:   1.0514259338378906E-004
(PID.TID 0000.0001)         System time:   1.0132789611816406E-006
(PID.TID 0000.0001)     Wall clock time:   1.0633468627929688E-004
(PID.TID 0000.0001)          No. starts:          10
(PID.TID 0000.0001)           No. stops:          10
(PID.TID 0000.0001)   Seconds in section "DO_WRITE_PICKUP     [FORWARD_STEP]":
(PID.TID 0000.0001)           User time:   6.3851356506347656E-002
(PID.TID 0000.0001)         System time:   2.4015009403228760E-002
(PID.TID 0000.0001)     Wall clock time:   8.7875843048095703E-002
(PID.TID 0000.0001)          No. starts:          10
(PID.TID 0000.0001)           No. stops:          10
(PID.TID 0000.0001) // ======================================================
(PID.TID 0000.0001) // Tile <-> Tile communication statistics
(PID.TID 0000.0001) // ======================================================
(PID.TID 0000.0001) // o Tile number: 000001
(PID.TID 0000.0001) //         No. X exchanges =              0
(PID.TID 0000.0001) //            Max. X spins =              0
(PID.TID 0000.0001) //            Min. X spins =     1000000000
(PID.TID 0000.0001) //          Total. X spins =              0
(PID.TID 0000.0001) //            Avg. X spins =       0.00E+00
(PID.TID 0000.0001) //         No. Y exchanges =              0
(PID.TID 0000.0001) //            Max. Y spins =              0
(PID.TID 0000.0001) //            Min. Y spins =     1000000000
(PID.TID 0000.0001) //          Total. Y spins =              0
(PID.TID 0000.0001) //            Avg. Y spins =       0.00E+00
(PID.TID 0000.0001) // o Tile number: 000002
(PID.TID 0000.0001) //         No. X exchanges =              0
(PID.TID 0000.0001) //            Max. X spins =              0
(PID.TID 0000.0001) //            Min. X spins =     1000000000
(PID.TID 0000.0001) //          Total. X spins =              0
(PID.TID 0000.0001) //            Avg. X spins =       0.00E+00
(PID.TID 0000.0001) //         No. Y exchanges =              0
(PID.TID 0000.0001) //            Max. Y spins =              0
(PID.TID 0000.0001) //            Min. Y spins =     1000000000
(PID.TID 0000.0001) //          Total. Y spins =              0
(PID.TID 0000.0001) //            Avg. Y spins =       0.00E+00
(PID.TID 0000.0001) // o Tile number: 000003
(PID.TID 0000.0001) //         No. X exchanges =              0
(PID.TID 0000.0001) //            Max. X spins =              0
(PID.TID 0000.0001) //            Min. X spins =     1000000000
(PID.TID 0000.0001) //          Total. X spins =              0
(PID.TID 0000.0001) //            Avg. X spins =       0.00E+00
(PID.TID 0000.0001) //         No. Y exchanges =              0
(PID.TID 0000.0001) //            Max. Y spins =              0
(PID.TID 0000.0001) //            Min. Y spins =     1000000000
(PID.TID 0000.0001) //          Total. Y spins =              0
(PID.TID 0000.0001) //            Avg. Y spins =       0.00E+00
(PID.TID 0000.0001) // o Tile number: 000004
(PID.TID 0000.0001) //         No. X exchanges =              0
(PID.TID 0000.0001) //            Max. X spins =              0
(PID.TID 0000.0001) //            Min. X spins =     1000000000
(PID.TID 0000.0001) //          Total. X spins =              0
(PID.TID 0000.0001) //            Avg. X spins =       0.00E+00
(PID.TID 0000.0001) //         No. Y exchanges =              0
(PID.TID 0000.0001) //            Max. Y spins =              0
(PID.TID 0000.0001) //            Min. Y spins =     1000000000
(PID.TID 0000.0001) //          Total. Y spins =              0
(PID.TID 0000.0001) //            Avg. Y spins =       0.00E+00
(PID.TID 0000.0001) // o Tile number: 000005
(PID.TID 0000.0001) //         No. X exchanges =              0
(PID.TID 0000.0001) //            Max. X spins =              0
(PID.TID 0000.0001) //            Min. X spins =     1000000000
(PID.TID 0000.0001) //          Total. X spins =              0
(PID.TID 0000.0001) //            Avg. X spins =       0.00E+00
(PID.TID 0000.0001) //         No. Y exchanges =              0
(PID.TID 0000.0001) //            Max. Y spins =              0
(PID.TID 0000.0001) //            Min. Y spins =     1000000000
(PID.TID 0000.0001) //          Total. Y spins =              0
(PID.TID 0000.0001) //            Avg. Y spins =       0.00E+00
(PID.TID 0000.0001) // o Tile number: 000006
(PID.TID 0000.0001) //         No. X exchanges =              0
(PID.TID 0000.0001) //            Max. X spins =              0
(PID.TID 0000.0001) //            Min. X spins =     1000000000
(PID.TID 0000.0001) //          Total. X spins =              0
(PID.TID 0000.0001) //            Avg. X spins =       0.00E+00
(PID.TID 0000.0001) //         No. Y exchanges =              0
(PID.TID 0000.0001) //            Max. Y spins =              0
(PID.TID 0000.0001) //            Min. Y spins =     1000000000
(PID.TID 0000.0001) //          Total. Y spins =              0
(PID.TID 0000.0001) //            Avg. Y spins =       0.00E+00
(PID.TID 0000.0001) // o Thread number: 000001
(PID.TID 0000.0001) //            No. barriers =          10728
(PID.TID 0000.0001) //      Max. barrier spins =              1
(PID.TID 0000.0001) //      Min. barrier spins =              1
(PID.TID 0000.0001) //     Total barrier spins =          10728
(PID.TID 0000.0001) //      Avg. barrier spins =       1.00E+00
PROGRAM MAIN: Execution ended Normally
