(PID.TID 0000.0001) 
(PID.TID 0000.0001) // ======================================================
(PID.TID 0000.0001) //                      MITgcm UV
(PID.TID 0000.0001) //                      =========
(PID.TID 0000.0001) // ======================================================
(PID.TID 0000.0001) // execution environment starting up...
(PID.TID 0000.0001) 
(PID.TID 0000.0001) // MITgcmUV version:  checkpoint64w
(PID.TID 0000.0001) // Build user:        jmc
(PID.TID 0000.0001) // Build host:        baudelaire
(PID.TID 0000.0001) // Build date:        Wed May 21 13:59:58 EDT 2014
(PID.TID 0000.0001) 
(PID.TID 0000.0001) // =======================================================
(PID.TID 0000.0001) // Execution Environment parameter file "eedata"
(PID.TID 0000.0001) // =======================================================
(PID.TID 0000.0001) ># Example "eedata" file
(PID.TID 0000.0001) ># Lines beginning "#" are comments
(PID.TID 0000.0001) ># nTx - No. threads per process in X
(PID.TID 0000.0001) ># nTy - No. threads per process in Y
(PID.TID 0000.0001) > &EEPARMS
(PID.TID 0000.0001) > useCoupler=.TRUE.,
(PID.TID 0000.0001) > useCubedSphereExchange=.TRUE.,
(PID.TID 0000.0001) > nTx=1,
(PID.TID 0000.0001) > nTy=1,
(PID.TID 0000.0001) >#debugMode=.TRUE.,
(PID.TID 0000.0001) > /
(PID.TID 0000.0001) ># Note: Some systems use & as the namelist terminator (as shown here).
(PID.TID 0000.0001) >#       Other systems use a / character.
(PID.TID 0000.0001) 
(PID.TID 0000.0001) // =======================================================
(PID.TID 0000.0001) // Computational Grid Specification ( see files "SIZE.h" )
(PID.TID 0000.0001) //                                  ( and "eedata"       )
(PID.TID 0000.0001) // =======================================================
(PID.TID 0000.0001)      nPx =    1 ; /* No. processes in X */
(PID.TID 0000.0001)      nPy =    1 ; /* No. processes in Y */
(PID.TID 0000.0001)      nSx =    6 ; /* No. tiles in X per process */
(PID.TID 0000.0001)      nSy =    1 ; /* No. tiles in Y per process */
(PID.TID 0000.0001)      sNx =   32 ; /* Tile size in X */
(PID.TID 0000.0001)      sNy =   32 ; /* Tile size in Y */
(PID.TID 0000.0001)      OLx =    4 ; /* Tile overlap distance in X */
(PID.TID 0000.0001)      OLy =    4 ; /* Tile overlap distance in Y */
(PID.TID 0000.0001)      nTx =    1 ; /* No. threads in X per process */
(PID.TID 0000.0001)      nTy =    1 ; /* No. threads in Y per process */
(PID.TID 0000.0001)       Nr =   26 ; /* No. levels in the vertical   */
(PID.TID 0000.0001)       Nx =  192 ; /* Total domain size in X ( = nPx*nSx*sNx ) */
(PID.TID 0000.0001)       Ny =   32 ; /* Total domain size in Y ( = nPy*nSy*sNy ) */
(PID.TID 0000.0001)   nTiles =    6 ; /* Total no. tiles per process ( = nSx*nSy ) */
(PID.TID 0000.0001)   nProcs =    1 ; /* Total no. processes ( = nPx*nPy ) */
(PID.TID 0000.0001) nThreads =    1 ; /* Total no. threads per process ( = nTx*nTy ) */
(PID.TID 0000.0001) usingMPI =    T ; /* Flag used to control whether MPI is in use */
(PID.TID 0000.0001)                   /*  note: To execute a program with MPI calls */
(PID.TID 0000.0001)                   /*  it must be launched appropriately e.g     */
(PID.TID 0000.0001)                   /*  "mpirun -np 64 ......"                    */
(PID.TID 0000.0001) useCoupler=    T ;/* Flag used to control communications with   */
(PID.TID 0000.0001)                   /*  other model components, through a coupler */
(PID.TID 0000.0001) debugMode =    F ; /* print debug msg. (sequence of S/R calls)  */
(PID.TID 0000.0001) printMapIncludesZeros=    F ; /* print zeros in Std.Output maps */
(PID.TID 0000.0001) maxLengthPrt1D=   65 /* maxLength of 1D array printed to StdOut */
(PID.TID 0000.0001) 
(PID.TID 0000.0001) ======= Starting MPI parallel Run =========
(PID.TID 0000.0001)  My Processor Name (len: 10 ) = baudelaire
(PID.TID 0000.0001)  Located at (  0,  0) on processor grid (0:  0,0:  0)
(PID.TID 0000.0001)  Origin at  (     1,     1) on global grid (1:   192,1:    32)
(PID.TID 0000.0001)  North neighbor = processor 0000
(PID.TID 0000.0001)  South neighbor = processor 0000
(PID.TID 0000.0001)   East neighbor = processor 0000
(PID.TID 0000.0001)   West neighbor = processor 0000
(PID.TID 0000.0001) // ======================================================
(PID.TID 0000.0001) // Mapping of tiles to threads
(PID.TID 0000.0001) // ======================================================
(PID.TID 0000.0001) // -o- Thread   1, tiles (   1:   6,   1:   1)
(PID.TID 0000.0001) 
(PID.TID 0000.0001) W2_READPARMS: file data.exch2 not found
(PID.TID 0000.0001) => use W2_EXCH2 default: regular 6-facets Cube
(PID.TID 0000.0001) W2_useE2ioLayOut=    T ;/* T: use Exch2 glob IO map; F: use model default */
(PID.TID 0000.0001) W2_mapIO        =  -1 ; /* select option for Exch2 global-IO map */
(PID.TID 0000.0001) W2_printMsg     =  -1 ; /* select option for printing information */
(PID.TID 0000.0001) ===== Start setting W2 TOPOLOGY:
(PID.TID 0000.0001)  write to log-file: w2_tile_topology.0000.log
(PID.TID 0000.0001) =====       setting W2 TOPOLOGY: Done
(PID.TID 0000.0001) 
(PID.TID 0000.0001)  INI_PARMS: opening model parameter file "data"
(PID.TID 0000.0001)  OPEN_COPY_DATA_FILE: opening file data
(PID.TID 0000.0001) // =======================================================
(PID.TID 0000.0001) // Parameter file "data"
(PID.TID 0000.0001) // =======================================================
(PID.TID 0000.0001) ># ====================
(PID.TID 0000.0001) ># | Model parameters |
(PID.TID 0000.0001) ># ====================
(PID.TID 0000.0001) >#
(PID.TID 0000.0001) ># Continuous equation parameters
(PID.TID 0000.0001) > &PARM01
(PID.TID 0000.0001) >#- mean theta* from H&S, isothermal (T=200.K) above p=150.mb:
(PID.TID 0000.0001) > tRef= 295.1, 295.2, 295.4, 295.6, 296.0, 296.6, 297.3, 298.2, 299.3, 300.6,
(PID.TID 0000.0001) >       302.4, 305.9, 311.8, 321.8, 338.3, 359.5, 382.8, 408.6, 437.5, 470.6,
(PID.TID 0000.0001) >       509.2, 555.8, 614.9, 696.3, 827.2, 1153.6,
(PID.TID 0000.0001) >#tRef=26*280.,
(PID.TID 0000.0001) > sRef=26*0.,
(PID.TID 0000.0001) > viscAr=0.E1,
(PID.TID 0000.0001) > viscAh=0.E6,
(PID.TID 0000.0001) > viscA4=0.E17,
(PID.TID 0000.0001) > no_slip_sides=.FALSE.,
(PID.TID 0000.0001) > no_slip_bottom=.FALSE.,
(PID.TID 0000.0001) > diffKhT=0.E3,
(PID.TID 0000.0001) > diffKrT=0.,
(PID.TID 0000.0001) > diffK4T=0.E17,
(PID.TID 0000.0001) > diffKrS=0.E2,
(PID.TID 0000.0001) > diffKhS=0.E3,
(PID.TID 0000.0001) > diffK4S=0.E17,
(PID.TID 0000.0001) > buoyancyRelation='ATMOSPHERIC',
(PID.TID 0000.0001) > eosType='IDEALG',
(PID.TID 0000.0001) > atm_Cp=1004.64,
(PID.TID 0000.0001) > atm_Rq=0.6078,
(PID.TID 0000.0001) > Integr_GeoPot=2,
(PID.TID 0000.0001) > selectFindRoSurf=1,
(PID.TID 0000.0001) > gravity=9.80,
(PID.TID 0000.0001) > rhonil=1.0,
(PID.TID 0000.0001) > rhoConst=1.0,
(PID.TID 0000.0001) > rigidLid=.FALSE.,
(PID.TID 0000.0001) > implicitFreeSurface=.TRUE.,
(PID.TID 0000.0001) > exactConserv=.TRUE.,
(PID.TID 0000.0001) > select_rStar=2,
(PID.TID 0000.0001) > nonlinFreeSurf=4,
(PID.TID 0000.0001) > hFacInf=0.2,
(PID.TID 0000.0001) > hFacSup=2.0,
(PID.TID 0000.0001) > hFacMin=1.0,
(PID.TID 0000.0001) > uniformLin_PhiSurf=.FALSE.,
(PID.TID 0000.0001) > vectorInvariantMomentum=.TRUE.,
(PID.TID 0000.0001) > useAbsVorticity=.TRUE.,
(PID.TID 0000.0001) > selectVortScheme=3,
(PID.TID 0000.0001) > selectKEscheme=3,
(PID.TID 0000.0001) > addFrictionHeating=.TRUE.,
(PID.TID 0000.0001) >#tempAdvScheme=77,
(PID.TID 0000.0001) > saltAdvScheme=77,
(PID.TID 0000.0001) > staggerTimeStep=.TRUE.,
(PID.TID 0000.0001) > readBinaryPrec=64,
(PID.TID 0000.0001) > writeBinaryPrec=64,
(PID.TID 0000.0001) >#globalFiles=.TRUE.,
(PID.TID 0000.0001) >#useSingleCpuIO=.TRUE.,
(PID.TID 0000.0001) > /
(PID.TID 0000.0001) >
(PID.TID 0000.0001) ># Elliptic solver parameters
(PID.TID 0000.0001) > &PARM02
(PID.TID 0000.0001) > cg2dMaxIters=200,
(PID.TID 0000.0001) > cg2dTargetResWunit=1.E-17,
(PID.TID 0000.0001) > /
(PID.TID 0000.0001) >
(PID.TID 0000.0001) ># Time stepping parameters
(PID.TID 0000.0001) > &PARM03
(PID.TID 0000.0001) > nIter0=0,
(PID.TID 0000.0001) > nTimeSteps=40,
(PID.TID 0000.0001) >#endTime=311040000.,
(PID.TID 0000.0001) >#endTime=5184000.,
(PID.TID 0000.0001) > deltaT=360.,
(PID.TID 0000.0001) > abEps=0.1,
(PID.TID 0000.0001) > forcing_In_AB=.FALSE.,
(PID.TID 0000.0001) > cAdjFreq=0.,
(PID.TID 0000.0001) >#- long run (> 1.yr):
(PID.TID 0000.0001) > pChkptFreq=155520000.,
(PID.TID 0000.0001) > chkptFreq =31104000.,
(PID.TID 0000.0001) > dumpFreq  =31104000.,
(PID.TID 0000.0001) > monitorFreq=2592000.,
(PID.TID 0000.0001) >#- short run (~ months):
(PID.TID 0000.0001) >#chkptFreq = 864000.,
(PID.TID 0000.0001) >#pChkptFreq=2592000.,
(PID.TID 0000.0001) >#dumpFreq  = 432000.,
(PID.TID 0000.0001) >#monitorFreq= 43200.,
(PID.TID 0000.0001) >#- short test:
(PID.TID 0000.0001) >#dumpFreq   =1.,
(PID.TID 0000.0001) > monitorFreq=1.,
(PID.TID 0000.0001) > /
(PID.TID 0000.0001) >
(PID.TID 0000.0001) ># Gridding parameters
(PID.TID 0000.0001) > &PARM04
(PID.TID 0000.0001) > usingCurvilinearGrid=.TRUE.,
(PID.TID 0000.0001) > horizGridFile='dxC1_dXYa',
(PID.TID 0000.0001) > radius_fromHorizGrid=6370.E3,
(PID.TID 0000.0001) >#delR=25*40.E2,
(PID.TID 0000.0001) > delR= 1500., 2122., 3000., 4242., 6000., 7800., 9100., 9400., 9280., 8400.,
(PID.TID 0000.0001) >       6980., 5800., 4820., 4004., 3328., 2766., 2298., 1910., 1586., 1318.,
(PID.TID 0000.0001) >       1096.,  910.,  756.,  628.,  522.,  434.,
(PID.TID 0000.0001) > Ro_SeaLevel=1.E5,
(PID.TID 0000.0001) > /
(PID.TID 0000.0001) >
(PID.TID 0000.0001) ># Input datasets
(PID.TID 0000.0001) > &PARM05
(PID.TID 0000.0001) > hydrogThetaFile='ini_theta_26l.bin',
(PID.TID 0000.0001) > hydrogSaltFile ='ini_specQ_26l.bin',
(PID.TID 0000.0001) > /
(PID.TID 0000.0001) 
(PID.TID 0000.0001)  INI_PARMS ; starts to read PARM01
(PID.TID 0000.0001)  INI_PARMS ; read PARM01 : OK
(PID.TID 0000.0001)  INI_PARMS ; starts to read PARM02
(PID.TID 0000.0001)  INI_PARMS ; read PARM02 : OK
(PID.TID 0000.0001)  INI_PARMS ; starts to read PARM03
(PID.TID 0000.0001)  INI_PARMS ; read PARM03 : OK
(PID.TID 0000.0001)  INI_PARMS ; starts to read PARM04
(PID.TID 0000.0001)  INI_PARMS ; read PARM04 : OK
(PID.TID 0000.0001)  INI_PARMS ; starts to read PARM05
(PID.TID 0000.0001)  INI_PARMS ; read PARM05 : OK
(PID.TID 0000.0001)  INI_PARMS: finished reading file "data"
(PID.TID 0000.0001)  PACKAGES_BOOT: opening data.pkg
(PID.TID 0000.0001)  OPEN_COPY_DATA_FILE: opening file data.pkg
(PID.TID 0000.0001) // =======================================================
(PID.TID 0000.0001) // Parameter file "data.pkg"
(PID.TID 0000.0001) // =======================================================
(PID.TID 0000.0001) ># Packages
(PID.TID 0000.0001) > &PACKAGES
(PID.TID 0000.0001) > useSHAP_FILT=.TRUE.,
(PID.TID 0000.0001) > useDiagnostics=.TRUE.,
(PID.TID 0000.0001) > useAtm_Phys=.TRUE.,
(PID.TID 0000.0001) >#useMNC = .TRUE.,
(PID.TID 0000.0001) > /
(PID.TID 0000.0001) 
(PID.TID 0000.0001)  PACKAGES_BOOT: finished reading data.pkg
(PID.TID 0000.0001)  PACKAGES_BOOT: On/Off package Summary
 --------  pkgs with a standard "usePKG" On/Off switch in "data.pkg":  --------
 pkg/shap_filt            compiled   and   used ( useSHAP_FILT             = T )
 pkg/atm_phys             compiled   and   used ( useAtm_Phys              = T )
 pkg/diagnostics          compiled   and   used ( useDiagnostics           = T )
 -------- pkgs without standard "usePKG" On/Off switch in "data.pkg":  --------
 pkg/generic_advdiff      compiled   and   used ( useGAD                   = T )
 pkg/mom_common           compiled   and   used ( momStepping              = T )
 pkg/mom_vecinv           compiled   and   used ( +vectorInvariantMomentum = T )
 pkg/mom_fluxform         compiled but not used ( & not vectorInvariantMom = F )
 pkg/monitor              compiled   and   used ( monitorFreq > 0.         = T )
 pkg/debug                compiled but not used ( debugMode                = F )
 pkg/compon_communic      compiled   and   used ( useCoupler               = T )
 pkg/atm_compon_interf    compiled   and   used ( useCoupler               = T )
 pkg/exch2                compiled   and   used
 pkg/rw                   compiled   and   used
 pkg/mdsio                compiled   and   used
(PID.TID 0000.0001)  PACKAGES_BOOT: End of package Summary
(PID.TID 0000.0001) 
(PID.TID 0000.0001)  SHAP_FILT_READPARMS: opening data.shap
(PID.TID 0000.0001)  OPEN_COPY_DATA_FILE: opening file data.shap
(PID.TID 0000.0001) // =======================================================
(PID.TID 0000.0001) // Parameter file "data.shap"
(PID.TID 0000.0001) // =======================================================
(PID.TID 0000.0001) ># Shapiro Filter parameters
(PID.TID 0000.0001) > &SHAP_PARM01
(PID.TID 0000.0001) > shap_filt_uvStar=.FALSE.,
(PID.TID 0000.0001) > shap_filt_TrStagg=.TRUE.,
(PID.TID 0000.0001) > Shap_funct=2,
(PID.TID 0000.0001) > nShapT=4,
(PID.TID 0000.0001) > nShapS=0,
(PID.TID 0000.0001) > nShapUV=4,
(PID.TID 0000.0001) > nShapTrPhys=1,
(PID.TID 0000.0001) > nShapUVPhys=0,
(PID.TID 0000.0001) > Shap_TrLength=140000.,
(PID.TID 0000.0001) >#Shap_TrLength=115000.,
(PID.TID 0000.0001) >#Shap_uvLength=110000.,
(PID.TID 0000.0001) >#Shap_Trtau=5400.,
(PID.TID 0000.0001) >#Shap_uvtau=5400.,
(PID.TID 0000.0001) > Shap_Trtau=1800.,
(PID.TID 0000.0001) > Shap_uvtau= 900.,
(PID.TID 0000.0001) > /
(PID.TID 0000.0001) >
(PID.TID 0000.0001) 
(PID.TID 0000.0001)  SHAP_FILT_READPARMS: finished reading data.shap
(PID.TID 0000.0001) Shap_funct =   /* select Shapiro filter function */
(PID.TID 0000.0001)                       2
(PID.TID 0000.0001)     ;
(PID.TID 0000.0001) nShapT =   /* power of Shapiro filter for Temperat */
(PID.TID 0000.0001)                       4
(PID.TID 0000.0001)     ;
(PID.TID 0000.0001) nShapS =   /* power of Shapiro filter for Salinity */
(PID.TID 0000.0001)                       0
(PID.TID 0000.0001)     ;
(PID.TID 0000.0001) nShapUV =   /* power of Shapiro filter for momentum */
(PID.TID 0000.0001)                       4
(PID.TID 0000.0001)     ;
(PID.TID 0000.0001) shap_filt_uvStar = /* apply filter before Press. Solver */
(PID.TID 0000.0001)                   F
(PID.TID 0000.0001)     ;
(PID.TID 0000.0001) shap_filt_TrStagg = /* filter T,S before calc PhiHyd (staggerTimeStep) */
(PID.TID 0000.0001)                   T
(PID.TID 0000.0001)     ;
(PID.TID 0000.0001) Shap_alwaysExchUV = /* always exch(U,V)    nShapUV times*/
(PID.TID 0000.0001)                   F
(PID.TID 0000.0001)     ;
(PID.TID 0000.0001) Shap_alwaysExchTr = /* always exch(Tracer) nShapTr times*/
(PID.TID 0000.0001)                   F
(PID.TID 0000.0001)     ;
(PID.TID 0000.0001) nShapTrPhys =   /* power of physical-space filter (Tracer) */
(PID.TID 0000.0001)                       1
(PID.TID 0000.0001)     ;
(PID.TID 0000.0001) nShapUVPhys =   /* power of physical-space filter (Momentum) */
(PID.TID 0000.0001)                       0
(PID.TID 0000.0001)     ;
(PID.TID 0000.0001) Shap_Trtau =   /* time scale of Shapiro filter (Tracer) */
(PID.TID 0000.0001)                 1.800000000000000E+03
(PID.TID 0000.0001)     ;
(PID.TID 0000.0001) Shap_TrLength =   /* Length scale of Shapiro filter (Tracer) */
(PID.TID 0000.0001)                 1.400000000000000E+05
(PID.TID 0000.0001)     ;
(PID.TID 0000.0001) Shap_uvtau =   /* time scale of Shapiro filter (Momentum) */
(PID.TID 0000.0001)                 9.000000000000000E+02
(PID.TID 0000.0001)     ;
(PID.TID 0000.0001) Shap_uvLength =   /* Length scale of Shapiro filter (Momentum) */
(PID.TID 0000.0001)                 0.000000000000000E+00
(PID.TID 0000.0001)     ;
(PID.TID 0000.0001) Shap_noSlip =  /* No-slip parameter (0=Free-slip ; 1=No-slip)*/
(PID.TID 0000.0001)                 0.000000000000000E+00
(PID.TID 0000.0001)     ;
(PID.TID 0000.0001) Shap_diagFreq =   /* Frequency^-1 for diagnostic output (s)*/
(PID.TID 0000.0001)                 0.000000000000000E+00
(PID.TID 0000.0001)     ;
(PID.TID 0000.0001) ATM_PHYS_READPARMS: opening data.atm_phys
(PID.TID 0000.0001)  OPEN_COPY_DATA_FILE: opening file data.atm_phys
(PID.TID 0000.0001) // =======================================================
(PID.TID 0000.0001) // Parameter file "data.atm_phys"
(PID.TID 0000.0001) // =======================================================
(PID.TID 0000.0001) >#
(PID.TID 0000.0001) > &ATM_PHYS_PARM01
(PID.TID 0000.0001) >#atmPhys_addTendT=.FALSE.,
(PID.TID 0000.0001) >#atmPhys_addTendS=.FALSE.,
(PID.TID 0000.0001) >#atmPhys_addTendU=.FALSE.,
(PID.TID 0000.0001) >#atmPhys_addTendV=.FALSE.,
(PID.TID 0000.0001) > atmPhys_tauDampUV = 86400.,
(PID.TID 0000.0001) > atmPhys_dampUVfac = 20*0., 0.125, 0.25, 0.5, 1., 2., 4.,
(PID.TID 0000.0001) >#- initial SST file:
(PID.TID 0000.0001) > atmPhys_SSTFile='SST_APE_1.bin',
(PID.TID 0000.0001) >#- Q-flux file:
(PID.TID 0000.0001) >#atmPhys_QflxFile='Qflux_w90.bin',
(PID.TID 0000.0001) >#- update SST (default = False = keep the same SST):
(PID.TID 0000.0001) >#atmPhys_stepSST=.TRUE.,
(PID.TID 0000.0001) > /
(PID.TID 0000.0001) 
(PID.TID 0000.0001) ATM_PHYS_READPARMS: finished reading data.atm_phys
(PID.TID 0000.0001)  DIAGNOSTICS_READPARMS: opening data.diagnostics
(PID.TID 0000.0001)  OPEN_COPY_DATA_FILE: opening file data.diagnostics
(PID.TID 0000.0001) // =======================================================
(PID.TID 0000.0001) // Parameter file "data.diagnostics"
(PID.TID 0000.0001) // =======================================================
(PID.TID 0000.0001) ># Diagnostic Package Choices
(PID.TID 0000.0001) >#--------------------
(PID.TID 0000.0001) >#  dumpAtLast (logical): always write output at the end of simulation (default=F)
(PID.TID 0000.0001) >#  diag_mnc   (logical): write to NetCDF files (default=useMNC)
(PID.TID 0000.0001) >#--for each output-stream:
(PID.TID 0000.0001) >#  fileName(n) : prefix of the output file name (max 80c long) for outp.stream n
(PID.TID 0000.0001) >#  frequency(n):< 0 : write snap-shot output every |frequency| seconds
(PID.TID 0000.0001) >#               > 0 : write time-average output every frequency seconds
(PID.TID 0000.0001) >#  timePhase(n)     : write at time = timePhase + multiple of |frequency|
(PID.TID 0000.0001) >#    averagingFreq  : frequency (in s) for periodic averaging interval
(PID.TID 0000.0001) >#    averagingPhase : phase     (in s) for periodic averaging interval
(PID.TID 0000.0001) >#    repeatCycle    : number of averaging intervals in 1 cycle
(PID.TID 0000.0001) >#  levels(:,n) : list of levels to write to file (Notes: declared as REAL)
(PID.TID 0000.0001) >#                when this entry is missing, select all common levels of this list
(PID.TID 0000.0001) >#  fields(:,n) : list of selected diagnostics fields (8.c) in outp.stream n
(PID.TID 0000.0001) >#                (see "available_diagnostics.log" file for the full list of diags)
(PID.TID 0000.0001) >#  missing_value(n) : missing value for real-type fields in output file "n"
(PID.TID 0000.0001) >#  fileFlags(n)     : specific code (8c string) for output file "n"
(PID.TID 0000.0001) >#--------------------
(PID.TID 0000.0001) > &DIAGNOSTICS_LIST
(PID.TID 0000.0001) ># diag_mnc     = .FALSE.,
(PID.TID 0000.0001) >#--
(PID.TID 0000.0001) >  fields(1:15,1) = 'ETAN    ','ETANSQ  ','DETADT2 ','AtPhCnvP','AtPhLscP',
(PID.TID 0000.0001) >                   'AtPhSens','AtPhEvap','AtPhTauX','AtPhTauY',
(PID.TID 0000.0001) >                   'AtPh_SST','AtPhInSR','AtPhOLR ',
(PID.TID 0000.0001) >                   'AtPhNSSR','AtPhDSLR','AtPhUSLR',
(PID.TID 0000.0001) >   fileName(1) = 'surfDiag',
(PID.TID 0000.0001) ># fileFlags(1) = 'D       ',
(PID.TID 0000.0001) ># frequency(1) = 31104000.,
(PID.TID 0000.0001) >  frequency(1) = 432000.,
(PID.TID 0000.0001) >  fields(1:14,2) = 'UVEL    ','VVEL    ','WVEL    ','THETA   ','SALT    ',
(PID.TID 0000.0001) >                   'UVELSQ  ','VVELSQ  ','WVELSQ  ','THETASQ ','SALTSQ  ',
(PID.TID 0000.0001) >                   'UVELMASS','VVELMASS','UV_VEL_C','RELHUM  ',
(PID.TID 0000.0001) >#                  'AtPhdTdt','AtPhdQdt','AtPhdUdt','AtPhdVdt',
(PID.TID 0000.0001) >#                  'AtPhdtTg','AtPhdtQg','AtPhDifT','AtPhDifM',
(PID.TID 0000.0001) >#                  'SHAP_dU ','MoistCor',
(PID.TID 0000.0001) >   fileName(2) = 'dynDiag',
(PID.TID 0000.0001) ># frequency(2) = 31104000.,
(PID.TID 0000.0001) >  frequency(2) = 432000.,
(PID.TID 0000.0001) > /
(PID.TID 0000.0001) >
(PID.TID 0000.0001) >#--------------------
(PID.TID 0000.0001) ># Parameter for Diagnostics of per level statistics:
(PID.TID 0000.0001) >#--------------------
(PID.TID 0000.0001) >#  diagSt_mnc (logical): write stat-diags to NetCDF files (default=diag_mnc)
(PID.TID 0000.0001) >#  diagSt_regMaskFile : file containing the region-mask to read-in
(PID.TID 0000.0001) >#  nSetRegMskFile   : number of region-mask sets within the region-mask file
(PID.TID 0000.0001) >#  set_regMask(i)   : region-mask set-index that identifies the region "i"
(PID.TID 0000.0001) >#  val_regMask(i)   : region "i" identifier value in the region mask
(PID.TID 0000.0001) >#--for each output-stream:
(PID.TID 0000.0001) >#  stat_fName(n) : prefix of the output file name (max 80c long) for outp.stream n
(PID.TID 0000.0001) >#  stat_freq(n):< 0 : write snap-shot output every |stat_freq| seconds
(PID.TID 0000.0001) >#               > 0 : write time-average output every stat_freq seconds
(PID.TID 0000.0001) >#  stat_phase(n)    : write at time = stat_phase + multiple of |stat_freq|
(PID.TID 0000.0001) >#  stat_region(:,n) : list of "regions" (default: 1 region only=global)
(PID.TID 0000.0001) >#  stat_fields(:,n) : list of selected diagnostics fields (8.c) in outp.stream n
(PID.TID 0000.0001) >#                (see "available_diagnostics.log" file for the full list of diags)
(PID.TID 0000.0001) >#--------------------
(PID.TID 0000.0001) > &DIAG_STATIS_PARMS
(PID.TID 0000.0001) > stat_fields(1:11,1) = 'ETAN    ','THETA   ','SALT    ','RELHUM  ',
(PID.TID 0000.0001) >                       'UE_VEL_C','VN_VEL_C','WVEL    ',
(PID.TID 0000.0001) >                       'AtPhdTdt','AtPhdQdt','AtPhdUdt','AtPhdVdt',
(PID.TID 0000.0001) >  stat_fName(1) = 'dynStDiag',
(PID.TID 0000.0001) >#  stat_freq(1) = 864000.,
(PID.TID 0000.0001) >   stat_freq(1) = 43200.,
(PID.TID 0000.0001) >  stat_phase(1) = 0.,
(PID.TID 0000.0001) > stat_fields(1:7,2)  = 'AtPhDifT','AtPhDifM','AtPhDisH',
(PID.TID 0000.0001) >                       'AtPhdtTg','AtPhdtQg','SHAP_dKE','MoistCor',
(PID.TID 0000.0001) >  stat_fName(2) = 'diffStDiag',
(PID.TID 0000.0001) >#  stat_freq(2) = 864000.,
(PID.TID 0000.0001) >   stat_freq(2) = 43200.,
(PID.TID 0000.0001) ># stat_phase(2) = 0.,
(PID.TID 0000.0001) > stat_fields(1:12,3) = 'AtPhSens','AtPhEvap','AtPhTauX','AtPhTauY',
(PID.TID 0000.0001) >                       'AtPhCnvP','AtPhLscP',
(PID.TID 0000.0001) >                       'AtPh_SST','AtPhInSR','AtPhOLR ',
(PID.TID 0000.0001) >                       'AtPhNSSR','AtPhDSLR','AtPhUSLR',
(PID.TID 0000.0001) >  stat_fName(3) = 'flxStDiag',
(PID.TID 0000.0001) >#  stat_freq(3) = 864000.,
(PID.TID 0000.0001) >   stat_freq(3) = 43200.,
(PID.TID 0000.0001) >  stat_phase(3) = 0.,
(PID.TID 0000.0001) > /
(PID.TID 0000.0001) >
(PID.TID 0000.0001) 
(PID.TID 0000.0001) S/R DIAGNOSTICS_READPARMS, read namelist "diagnostics_list": start
(PID.TID 0000.0001) S/R DIAGNOSTICS_READPARMS, read namelist "diagnostics_list": OK
(PID.TID 0000.0001) S/R DIAGNOSTICS_READPARMS, read namelist "DIAG_STATIS_PARMS": start
(PID.TID 0000.0001) S/R DIAGNOSTICS_READPARMS, read namelist "DIAG_STATIS_PARMS": OK
(PID.TID 0000.0001)  DIAGNOSTICS_READPARMS: global parameter summary:
(PID.TID 0000.0001)  dumpAtLast = /* always write time-ave diags at the end */
(PID.TID 0000.0001)                   F
(PID.TID 0000.0001)     ;
(PID.TID 0000.0001)  diag_mnc =   /* write NetCDF output files */
(PID.TID 0000.0001)                   F
(PID.TID 0000.0001)     ;
(PID.TID 0000.0001)  useMissingValue = /* put MissingValue where mask = 0 */
(PID.TID 0000.0001)                   F
(PID.TID 0000.0001)     ;
(PID.TID 0000.0001)  diagCG_maxIters = /* max number of iters in diag_cg2d */
(PID.TID 0000.0001)                     200
(PID.TID 0000.0001)     ;
(PID.TID 0000.0001)  diagCG_resTarget = /* residual target for diag_cg2d */
(PID.TID 0000.0001)                 1.000000000000000E-07
(PID.TID 0000.0001)     ;
(PID.TID 0000.0001) -----------------------------------------------------
(PID.TID 0000.0001)  DIAGNOSTICS_READPARMS: active diagnostics summary:
(PID.TID 0000.0001) -----------------------------------------------------
(PID.TID 0000.0001) Creating Output Stream: surfDiag
(PID.TID 0000.0001) Output Frequency:     432000.000000 ; Phase:           0.000000
(PID.TID 0000.0001)  Averaging Freq.:     432000.000000 , Phase:           0.000000 , Cycle:   1
(PID.TID 0000.0001)  missing value: -9.990000000000E+02
(PID.TID 0000.0001)  Levels:    will be set later
(PID.TID 0000.0001)  Fields:    ETAN     ETANSQ   DETADT2  AtPhCnvP AtPhLscP AtPhSens AtPhEvap AtPhTauX AtPhTauY AtPh_SST
(PID.TID 0000.0001)  Fields:    AtPhInSR AtPhOLR  AtPhNSSR AtPhDSLR AtPhUSLR
(PID.TID 0000.0001) Creating Output Stream: dynDiag
(PID.TID 0000.0001) Output Frequency:     432000.000000 ; Phase:           0.000000
(PID.TID 0000.0001)  Averaging Freq.:     432000.000000 , Phase:           0.000000 , Cycle:   1
(PID.TID 0000.0001)  missing value: -9.990000000000E+02
(PID.TID 0000.0001)  Levels:    will be set later
(PID.TID 0000.0001)  Fields:    UVEL     VVEL     WVEL     THETA    SALT     UVELSQ   VVELSQ   WVELSQ   THETASQ  SALTSQ
(PID.TID 0000.0001)  Fields:    UVELMASS VVELMASS UV_VEL_C RELHUM
(PID.TID 0000.0001) -----------------------------------------------------
(PID.TID 0000.0001)  DIAGNOSTICS_READPARMS: statistics diags. summary:
(PID.TID 0000.0001) Creating Stats. Output Stream: dynStDiag
(PID.TID 0000.0001) Output Frequency:      43200.000000 ; Phase:           0.000000
(PID.TID 0000.0001)  Regions:   0
(PID.TID 0000.0001)  Fields:    ETAN     THETA    SALT     RELHUM   UE_VEL_C VN_VEL_C WVEL     AtPhdTdt AtPhdQdt AtPhdUdt
(PID.TID 0000.0001)  Fields:    AtPhdVdt
(PID.TID 0000.0001) Creating Stats. Output Stream: diffStDiag
(PID.TID 0000.0001) Output Frequency:      43200.000000 ; Phase:           0.000000
(PID.TID 0000.0001)  Regions:   0
(PID.TID 0000.0001)  Fields:    AtPhDifT AtPhDifM AtPhDisH AtPhdtTg AtPhdtQg SHAP_dKE MoistCor
(PID.TID 0000.0001) Creating Stats. Output Stream: flxStDiag
(PID.TID 0000.0001) Output Frequency:      43200.000000 ; Phase:           0.000000
(PID.TID 0000.0001)  Regions:   0
(PID.TID 0000.0001)  Fields:    AtPhSens AtPhEvap AtPhTauX AtPhTauY AtPhCnvP AtPhLscP AtPh_SST AtPhInSR AtPhOLR  AtPhNSSR
(PID.TID 0000.0001)  Fields:    AtPhDSLR AtPhUSLR
(PID.TID 0000.0001) -----------------------------------------------------
(PID.TID 0000.0001) 
(PID.TID 0000.0001)  CPL_READPARMS: opening data.cpl
(PID.TID 0000.0001)  OPEN_COPY_DATA_FILE: opening file data.cpl
(PID.TID 0000.0001) // =======================================================
(PID.TID 0000.0001) // Parameter file "data.cpl"
(PID.TID 0000.0001) // =======================================================
(PID.TID 0000.0001) ># Coupling package parameters, ATM component:
(PID.TID 0000.0001) >#     cpl_oldPickup  :: restart from an old pickup (= until ckpt 59h)
(PID.TID 0000.0001) >#     useImportMxlD  :: True => use Imported Mix.Layer Detph from coupler
(PID.TID 0000.0001) >#     useImportSST   :: True => use the Imported SST from coupler
(PID.TID 0000.0001) >#     useImportSSS   :: True => use the Imported SSS from coupler
(PID.TID 0000.0001) >#     useImportVsq   :: True => use the Imported Surf. velocity^2
(PID.TID 0000.0001) >#     cpl_atmSendFrq :: Frequency^-1 for sending data to coupler (s)
(PID.TID 0000.0001) >#     maxNumberPrint :: max number of printed Exp/Imp messages
(PID.TID 0000.0001) > &CPL_ATM_PARAM
(PID.TID 0000.0001) ># cpl_oldPickup=.TRUE.,
(PID.TID 0000.0001) >  useImportMxlD=.FALSE.,
(PID.TID 0000.0001) ># useImportSST =.FALSE.,
(PID.TID 0000.0001) >  useImportSSS =.FALSE.,
(PID.TID 0000.0001) >  useImportVsq =.FALSE.,
(PID.TID 0000.0001) ># useImportFlxCO2=.FALSE.,
(PID.TID 0000.0001) >  cpl_atmSendFrq=2880.,
(PID.TID 0000.0001) > /
(PID.TID 0000.0001) 
(PID.TID 0000.0001)  CPL_READPARMS: finished reading data.cpl
(PID.TID 0000.0001) 
(PID.TID 0000.0001) // ===================================
(PID.TID 0000.0001) // Coupling package parameters :
(PID.TID 0000.0001) // ===================================
(PID.TID 0000.0001) cpl_oldPickup = /* restart from old pickup on/off flag */
(PID.TID 0000.0001)                   F
(PID.TID 0000.0001)     ;
(PID.TID 0000.0001) useImportMxlD = /* use Imported MxL. Depth from Coupler flag */
(PID.TID 0000.0001)                   F
(PID.TID 0000.0001)     ;
(PID.TID 0000.0001) useImportSST = /* use Imported SST from Coupler on/off flag */
(PID.TID 0000.0001)                   T
(PID.TID 0000.0001)     ;
(PID.TID 0000.0001) useImportSSS = /* use Imported SSS from Coupler on/off flag */
(PID.TID 0000.0001)                   F
(PID.TID 0000.0001)     ;
(PID.TID 0000.0001) useImportVsq = /* use Imported surf.Vel^2 from Coupler flag */
(PID.TID 0000.0001)                   F
(PID.TID 0000.0001)     ;
(PID.TID 0000.0001) useImportFlxCO2 = /* use Imported air-sea CO2 flux from Coupler flag */
(PID.TID 0000.0001)                   F
(PID.TID 0000.0001)     ;
(PID.TID 0000.0001) cpl_atmSendFrq = /* Frequency^o-1 for sending data to Coupler (s) */
(PID.TID 0000.0001)                 2.880000000000000E+03
(PID.TID 0000.0001)     ;
(PID.TID 0000.0001) cplSendFrq_iter = /* send data to coupler every "cplSendFrq" iter */
(PID.TID 0000.0001)                       8
(PID.TID 0000.0001)     ;
(PID.TID 0000.0001) maxNumberPrint = /* max number of printed Exp/Imp messages */
(PID.TID 0000.0001)                     100
(PID.TID 0000.0001)     ;
(PID.TID 0000.0001) SET_PARMS: done
(PID.TID 0000.0001) Enter INI_VERTICAL_GRID: setInterFDr=    T ; setCenterDr=    F
(PID.TID 0000.0001) tile:   1 ; Read from file dxC1_dXYa.face001.bin
(PID.TID 0000.0001)   => xC yC dxF dyF rA xG yG dxV dyU rAz dxC dyC rAw rAs dxG dyG AngleCS AngleSN
(PID.TID 0000.0001) tile:   2 ; Read from file dxC1_dXYa.face002.bin
(PID.TID 0000.0001)   => xC yC dxF dyF rA xG yG dxV dyU rAz dxC dyC rAw rAs dxG dyG AngleCS AngleSN
(PID.TID 0000.0001) tile:   3 ; Read from file dxC1_dXYa.face003.bin
(PID.TID 0000.0001)   => xC yC dxF dyF rA xG yG dxV dyU rAz dxC dyC rAw rAs dxG dyG AngleCS AngleSN
(PID.TID 0000.0001) tile:   4 ; Read from file dxC1_dXYa.face004.bin
(PID.TID 0000.0001)   => xC yC dxF dyF rA xG yG dxV dyU rAz dxC dyC rAw rAs dxG dyG AngleCS AngleSN
(PID.TID 0000.0001) tile:   5 ; Read from file dxC1_dXYa.face005.bin
(PID.TID 0000.0001)   => xC yC dxF dyF rA xG yG dxV dyU rAz dxC dyC rAw rAs dxG dyG AngleCS AngleSN
(PID.TID 0000.0001) tile:   6 ; Read from file dxC1_dXYa.face006.bin
(PID.TID 0000.0001)   => xC yC dxF dyF rA xG yG dxV dyU rAz dxC dyC rAw rAs dxG dyG AngleCS AngleSN
(PID.TID 0000.0001) %MON XC_max                       =   1.7854351589505E+02
(PID.TID 0000.0001) %MON XC_min                       =  -1.7854351589505E+02
(PID.TID 0000.0001) %MON XC_mean                      =  -4.6999441375798E-15
(PID.TID 0000.0001) %MON XC_sd                        =   1.0355545336287E+02
(PID.TID 0000.0001) %MON XG_max                       =   1.8000000000000E+02
(PID.TID 0000.0001) %MON XG_min                       =  -1.7708797161002E+02
(PID.TID 0000.0001) %MON XG_mean                      =   1.8603515625000E+00
(PID.TID 0000.0001) %MON XG_sd                        =   1.0357130300504E+02
(PID.TID 0000.0001) %MON DXC_max                      =   3.2375185836900E+05
(PID.TID 0000.0001) %MON DXC_min                      =   1.1353730006923E+05
(PID.TID 0000.0001) %MON DXC_mean                     =   2.8606102525036E+05
(PID.TID 0000.0001) %MON DXC_sd                       =   3.4020997630307E+04
(PID.TID 0000.0001) %MON DXF_max                      =   3.2369947500827E+05
(PID.TID 0000.0001) %MON DXF_min                      =   1.2020820513318E+05
(PID.TID 0000.0001) %MON DXF_mean                     =   2.8605437324820E+05
(PID.TID 0000.0001) %MON DXF_sd                       =   3.4050524252539E+04
(PID.TID 0000.0001) %MON DXG_max                      =   3.2375195872773E+05
(PID.TID 0000.0001) %MON DXG_min                      =   1.0098378008791E+05
(PID.TID 0000.0001) %MON DXG_mean                     =   2.8603818508931E+05
(PID.TID 0000.0001) %MON DXG_sd                       =   3.4140406908005E+04
(PID.TID 0000.0001) %MON DXV_max                      =   3.2380418162750E+05
(PID.TID 0000.0001) %MON DXV_min                      =   8.0152299824136E+04
(PID.TID 0000.0001) %MON DXV_mean                     =   2.8603970633619E+05
(PID.TID 0000.0001) %MON DXV_sd                       =   3.4145142117723E+04
(PID.TID 0000.0001) %MON YC_max                       =   8.7940663871962E+01
(PID.TID 0000.0001) %MON YC_min                       =  -8.7940663871962E+01
(PID.TID 0000.0001) %MON YC_mean                      =   0.0000000000000E+00
(PID.TID 0000.0001) %MON YC_sd                        =   3.8676242969072E+01
(PID.TID 0000.0001) %MON YG_max                       =   9.0000000000000E+01
(PID.TID 0000.0001) %MON YG_min                       =  -9.0000000000000E+01
(PID.TID 0000.0001) %MON YG_mean                      =  -1.1842378929335E-15
(PID.TID 0000.0001) %MON YG_sd                        =   3.8676895860710E+01
(PID.TID 0000.0001) %MON DYC_max                      =   3.2375185836900E+05
(PID.TID 0000.0001) %MON DYC_min                      =   1.1353730006923E+05
(PID.TID 0000.0001) %MON DYC_mean                     =   2.8606102525036E+05
(PID.TID 0000.0001) %MON DYC_sd                       =   3.4020997630307E+04
(PID.TID 0000.0001) %MON DYF_max                      =   3.2369947500827E+05
(PID.TID 0000.0001) %MON DYF_min                      =   1.2020820513318E+05
(PID.TID 0000.0001) %MON DYF_mean                     =   2.8605437324820E+05
(PID.TID 0000.0001) %MON DYF_sd                       =   3.4050524252539E+04
(PID.TID 0000.0001) %MON DYG_max                      =   3.2375195872773E+05
(PID.TID 0000.0001) %MON DYG_min                      =   1.0098378008791E+05
(PID.TID 0000.0001) %MON DYG_mean                     =   2.8603818508931E+05
(PID.TID 0000.0001) %MON DYG_sd                       =   3.4140406908005E+04
(PID.TID 0000.0001) %MON DYU_max                      =   3.2380418162750E+05
(PID.TID 0000.0001) %MON DYU_min                      =   8.0152299824136E+04
(PID.TID 0000.0001) %MON DYU_mean                     =   2.8603970633619E+05
(PID.TID 0000.0001) %MON DYU_sd                       =   3.4145142117723E+04
(PID.TID 0000.0001) %MON RA_max                       =   1.0474757731659E+11
(PID.TID 0000.0001) %MON RA_min                       =   1.5497867056722E+10
(PID.TID 0000.0001) %MON RA_mean                      =   8.2985711332657E+10
(PID.TID 0000.0001) %MON RA_sd                        =   1.7448591913787E+10
(PID.TID 0000.0001) %MON RAW_max                      =   1.0481529828871E+11
(PID.TID 0000.0001) %MON RAW_min                      =   1.1465425741966E+10
(PID.TID 0000.0001) %MON RAW_mean                     =   8.2985711332657E+10
(PID.TID 0000.0001) %MON RAW_sd                       =   1.7503889570793E+10
(PID.TID 0000.0001) %MON RAS_max                      =   1.0481529828871E+11
(PID.TID 0000.0001) %MON RAS_min                      =   1.1465425741966E+10
(PID.TID 0000.0001) %MON RAS_mean                     =   8.2985711332657E+10
(PID.TID 0000.0001) %MON RAS_sd                       =   1.7503889570793E+10
(PID.TID 0000.0001) %MON RAZ_max                      =   1.0484349334619E+11
(PID.TID 0000.0001) %MON RAZ_min                      =   8.8317900612505E+09
(PID.TID 0000.0001) %MON RAZ_mean                     =   8.2992246709235E+10
(PID.TID 0000.0001) %MON RAZ_sd                       =   1.7482297311044E+10
(PID.TID 0000.0001) %MON AngleCS_max                  =   9.9999994756719E-01
(PID.TID 0000.0001) %MON AngleCS_min                  =  -9.9968286884824E-01
(PID.TID 0000.0001) %MON AngleCS_mean                 =   3.3078922539000E-01
(PID.TID 0000.0001) %MON AngleCS_sd                   =   6.2496278958502E-01
(PID.TID 0000.0001) %MON AngleSN_max                  =   9.9968286884824E-01
(PID.TID 0000.0001) %MON AngleSN_min                  =  -9.9999994756719E-01
(PID.TID 0000.0001) %MON AngleSN_mean                 =  -3.3078922539000E-01
(PID.TID 0000.0001) %MON AngleSN_sd                   =   6.2496278958502E-01
(PID.TID 0000.0001) 
(PID.TID 0000.0001) SET_REF_STATE: PhiRef/g [m] at level Center (integer)
(PID.TID 0000.0001)                      and at level Interface (half-int.) :
(PID.TID 0000.0001)  K=  0.5  ;  r=       100000.0  ;  phiRef/g=        0.000
(PID.TID 0000.0001)  K=  1.0  ;  r=        99250.0  ;  phiRef/g=       65.000
(PID.TID 0000.0001)  K=  1.5  ;  r=        98500.0  ;  phiRef/g=      144.206
(PID.TID 0000.0001)  K=  2.0  ;  r=        97439.0  ;  phiRef/g=      223.413
(PID.TID 0000.0001)  K=  2.5  ;  r=        96378.0  ;  phiRef/g=      337.236
(PID.TID 0000.0001)  K=  3.0  ;  r=        94878.0  ;  phiRef/g=      451.060
(PID.TID 0000.0001)  K=  3.5  ;  r=        93378.0  ;  phiRef/g=      615.802
(PID.TID 0000.0001)  K=  4.0  ;  r=        91257.0  ;  phiRef/g=      780.544
(PID.TID 0000.0001)  K=  4.5  ;  r=        89136.0  ;  phiRef/g=     1021.698
(PID.TID 0000.0001)  K=  5.0  ;  r=        86136.0  ;  phiRef/g=     1262.852
(PID.TID 0000.0001)  K=  5.5  ;  r=        83136.0  ;  phiRef/g=     1604.545
(PID.TID 0000.0001)  K=  6.0  ;  r=        79236.0  ;  phiRef/g=     1946.238
(PID.TID 0000.0001)  K=  6.5  ;  r=        75336.0  ;  phiRef/g=     2394.973
(PID.TID 0000.0001)  K=  7.0  ;  r=        70786.0  ;  phiRef/g=     2843.709
(PID.TID 0000.0001)  K=  7.5  ;  r=        66236.0  ;  phiRef/g=     3381.201
(PID.TID 0000.0001)  K=  8.0  ;  r=        61536.0  ;  phiRef/g=     3918.694
(PID.TID 0000.0001)  K=  8.5  ;  r=        56836.0  ;  phiRef/g=     4523.627
(PID.TID 0000.0001)  K=  9.0  ;  r=        52196.0  ;  phiRef/g=     5128.560
(PID.TID 0000.0001)  K=  9.5  ;  r=        47556.0  ;  phiRef/g=     5777.201
(PID.TID 0000.0001)  K= 10.0  ;  r=        43356.0  ;  phiRef/g=     6425.843
(PID.TID 0000.0001)  K= 10.5  ;  r=        39156.0  ;  phiRef/g=     7072.216
(PID.TID 0000.0001)  K= 11.0  ;  r=        35666.0  ;  phiRef/g=     7718.589
(PID.TID 0000.0001)  K= 11.5  ;  r=        32176.0  ;  phiRef/g=     8336.533
(PID.TID 0000.0001)  K= 12.0  ;  r=        29276.0  ;  phiRef/g=     8954.478
(PID.TID 0000.0001)  K= 12.5  ;  r=        26376.0  ;  phiRef/g=     9546.297
(PID.TID 0000.0001)  K= 13.0  ;  r=        23966.0  ;  phiRef/g=    10138.117
(PID.TID 0000.0001)  K= 13.5  ;  r=        21556.0  ;  phiRef/g=    10706.062
(PID.TID 0000.0001)  K= 14.0  ;  r=        19554.0  ;  phiRef/g=    11274.007
(PID.TID 0000.0001)  K= 14.5  ;  r=        17552.0  ;  phiRef/g=    11820.513
(PID.TID 0000.0001)  K= 15.0  ;  r=        15888.0  ;  phiRef/g=    12367.018
(PID.TID 0000.0001)  K= 15.5  ;  r=        14224.0  ;  phiRef/g=    12894.813
(PID.TID 0000.0001)  K= 16.0  ;  r=        12841.0  ;  phiRef/g=    13422.607
(PID.TID 0000.0001)  K= 16.5  ;  r=        11458.0  ;  phiRef/g=    13934.405
(PID.TID 0000.0001)  K= 17.0  ;  r=        10309.0  ;  phiRef/g=    14446.203
(PID.TID 0000.0001)  K= 17.5  ;  r=         9160.0  ;  phiRef/g=    14945.188
(PID.TID 0000.0001)  K= 18.0  ;  r=         8205.0  ;  phiRef/g=    15444.173
(PID.TID 0000.0001)  K= 18.5  ;  r=         7250.0  ;  phiRef/g=    15934.021
(PID.TID 0000.0001)  K= 19.0  ;  r=         6457.0  ;  phiRef/g=    16423.869
(PID.TID 0000.0001)  K= 19.5  ;  r=         5664.0  ;  phiRef/g=    16909.194
(PID.TID 0000.0001)  K= 20.0  ;  r=         5005.0  ;  phiRef/g=    17394.518
(PID.TID 0000.0001)  K= 20.5  ;  r=         4346.0  ;  phiRef/g=    17881.933
(PID.TID 0000.0001)  K= 21.0  ;  r=         3798.0  ;  phiRef/g=    18369.347
(PID.TID 0000.0001)  K= 21.5  ;  r=         3250.0  ;  phiRef/g=    18867.727
(PID.TID 0000.0001)  K= 22.0  ;  r=         2795.0  ;  phiRef/g=    19366.107
(PID.TID 0000.0001)  K= 22.5  ;  r=         2340.0  ;  phiRef/g=    19889.510
(PID.TID 0000.0001)  K= 23.0  ;  r=         1962.0  ;  phiRef/g=    20412.912
(PID.TID 0000.0001)  K= 23.5  ;  r=         1584.0  ;  phiRef/g=    20987.805
(PID.TID 0000.0001)  K= 24.0  ;  r=         1270.0  ;  phiRef/g=    21562.697
(PID.TID 0000.0001)  K= 24.5  ;  r=          956.0  ;  phiRef/g=    22250.139
(PID.TID 0000.0001)  K= 25.0  ;  r=          695.0  ;  phiRef/g=    22937.580
(PID.TID 0000.0001)  K= 25.5  ;  r=          434.0  ;  phiRef/g=    23972.294
(PID.TID 0000.0001)  K= 26.0  ;  r=          217.0  ;  phiRef/g=    25007.007
(PID.TID 0000.0001)  K= 26.5  ;  r=            0.0  ;  phiRef/g=    30251.966
(PID.TID 0000.0001) // =======================================================
(PID.TID 0000.0001) // Field Model R_low (ini_masks_etc)
(PID.TID 0000.0001) // CMIN =          1.000000000000000E+32
(PID.TID 0000.0001) // CMAX =         -1.000000000000000E+32
(PID.TID 0000.0001) // CINT =          0.000000000000000E+00
(PID.TID 0000.0001) // SYMBOLS (CMIN->CMAX): -abcdefghijklmnopqrstuvwxyz+
(PID.TID 0000.0001) //                  0.0: .
(PID.TID 0000.0001) // RANGE I (Lo:Hi:Step):(    -3:   196:     1)
(PID.TID 0000.0001) // RANGE J (Lo:Hi:Step):(    36:    -3:    -1)
(PID.TID 0000.0001) // RANGE K (Lo:Hi:Step):(   1:   1:   1)
(PID.TID 0000.0001) // =======================================================
(PID.TID 0000.0001) // =======================================================
(PID.TID 0000.0001) // END OF FIELD                                          =
(PID.TID 0000.0001) // =======================================================
(PID.TID 0000.0001) 
(PID.TID 0000.0001) // =======================================================
(PID.TID 0000.0001) // Field Model Ro_surf (ini_masks_etc)
(PID.TID 0000.0001) // CMIN =          1.000000000000000E+05
(PID.TID 0000.0001) // CMAX =          1.000000000000000E+05
(PID.TID 0000.0001) // CINT =          0.000000000000000E+00
(PID.TID 0000.0001) // SYMBOLS (CMIN->CMAX): -abcdefghijklmnopqrstuvwxyz+
(PID.TID 0000.0001) //                  0.0: .
(PID.TID 0000.0001) // RANGE I (Lo:Hi:Step):(    -3:   196:     1)
(PID.TID 0000.0001) // RANGE J (Lo:Hi:Step):(    36:    -3:    -1)
(PID.TID 0000.0001) // RANGE K (Lo:Hi:Step):(   1:   1:   1)
(PID.TID 0000.0001) // =======================================================
(PID.TID 0000.0001) // =======================================================
(PID.TID 0000.0001) // END OF FIELD                                          =
(PID.TID 0000.0001) // =======================================================
(PID.TID 0000.0001) 
(PID.TID 0000.0001) // =======================================================
(PID.TID 0000.0001) // Field hFacC at iteration          0
(PID.TID 0000.0001) // CMIN =          1.000000000000000E+00
(PID.TID 0000.0001) // CMAX =          1.000000000000000E+00
(PID.TID 0000.0001) // CINT =          0.000000000000000E+00
(PID.TID 0000.0001) // SYMBOLS (CMIN->CMAX): -abcdefghijklmnopqrstuvwxyz+
(PID.TID 0000.0001) //                  0.0: .
(PID.TID 0000.0001) // RANGE I (Lo:Hi:Step):(    -3:   196:     1)
(PID.TID 0000.0001) // RANGE J (Lo:Hi:Step):(    36:    -3:    -1)
(PID.TID 0000.0001) // RANGE K (Lo:Hi:Step):(   1:   1:   1)
(PID.TID 0000.0001) // =======================================================
(PID.TID 0000.0001) // =======================================================
(PID.TID 0000.0001) // END OF FIELD                                          =
(PID.TID 0000.0001) // =======================================================
(PID.TID 0000.0001) 
(PID.TID 0000.0001) // =======================================================
(PID.TID 0000.0001) // Field hFacW at iteration          0
(PID.TID 0000.0001) // CMIN =          1.000000000000000E+00
(PID.TID 0000.0001) // CMAX =          1.000000000000000E+00
(PID.TID 0000.0001) // CINT =          0.000000000000000E+00
(PID.TID 0000.0001) // SYMBOLS (CMIN->CMAX): -abcdefghijklmnopqrstuvwxyz+
(PID.TID 0000.0001) //                  0.0: .
(PID.TID 0000.0001) // RANGE I (Lo:Hi:Step):(    -3:   196:     1)
(PID.TID 0000.0001) // RANGE J (Lo:Hi:Step):(    36:    -3:    -1)
(PID.TID 0000.0001) // RANGE K (Lo:Hi:Step):(   1:   1:   1)
(PID.TID 0000.0001) // =======================================================
(PID.TID 0000.0001) // =======================================================
(PID.TID 0000.0001) // END OF FIELD                                          =
(PID.TID 0000.0001) // =======================================================
(PID.TID 0000.0001) 
(PID.TID 0000.0001) // =======================================================
(PID.TID 0000.0001) // Field hFacS at iteration          0
(PID.TID 0000.0001) // CMIN =          1.000000000000000E+00
(PID.TID 0000.0001) // CMAX =          1.000000000000000E+00
(PID.TID 0000.0001) // CINT =          0.000000000000000E+00
(PID.TID 0000.0001) // SYMBOLS (CMIN->CMAX): -abcdefghijklmnopqrstuvwxyz+
(PID.TID 0000.0001) //                  0.0: .
(PID.TID 0000.0001) // RANGE I (Lo:Hi:Step):(    -3:   196:     1)
(PID.TID 0000.0001) // RANGE J (Lo:Hi:Step):(    36:    -3:    -1)
(PID.TID 0000.0001) // RANGE K (Lo:Hi:Step):(   1:   1:   1)
(PID.TID 0000.0001) // =======================================================
(PID.TID 0000.0001) // =======================================================
(PID.TID 0000.0001) // END OF FIELD                                          =
(PID.TID 0000.0001) // =======================================================
(PID.TID 0000.0001) 
(PID.TID 0000.0001) GAD_INIT_FIXED: GAD_OlMinSize=  2  0  2
(PID.TID 0000.0001) 
(PID.TID 0000.0001) // ===================================
(PID.TID 0000.0001) // GAD parameters :
(PID.TID 0000.0001) // ===================================
(PID.TID 0000.0001) tempAdvScheme =   /* Temp. Horiz.Advection scheme selector */
(PID.TID 0000.0001)                       2
(PID.TID 0000.0001)     ;
(PID.TID 0000.0001) tempVertAdvScheme =   /* Temp. Vert. Advection scheme selector */
(PID.TID 0000.0001)                       2
(PID.TID 0000.0001)     ;
(PID.TID 0000.0001) tempMultiDimAdvec =   /* use Muti-Dim Advec method for Temp */
(PID.TID 0000.0001)                   F
(PID.TID 0000.0001)     ;
(PID.TID 0000.0001) tempSOM_Advection = /* use 2nd Order Moment Advection for Temp */
(PID.TID 0000.0001)                   F
(PID.TID 0000.0001)     ;
(PID.TID 0000.0001) AdamsBashforthGt = /* apply Adams-Bashforth extrapolation on Gt */
(PID.TID 0000.0001)                   T
(PID.TID 0000.0001)     ;
(PID.TID 0000.0001) AdamsBashforth_T = /* apply Adams-Bashforth extrapolation on Temp */
(PID.TID 0000.0001)                   F
(PID.TID 0000.0001)     ;
(PID.TID 0000.0001) saltAdvScheme =   /* Salt. Horiz.advection scheme selector */
(PID.TID 0000.0001)                      77
(PID.TID 0000.0001)     ;
(PID.TID 0000.0001) saltVertAdvScheme =   /* Salt. Vert. Advection scheme selector */
(PID.TID 0000.0001)                      77
(PID.TID 0000.0001)     ;
(PID.TID 0000.0001) saltMultiDimAdvec =   /* use Muti-Dim Advec method for Salt */
(PID.TID 0000.0001)                   T
(PID.TID 0000.0001)     ;
(PID.TID 0000.0001) saltSOM_Advection = /* use 2nd Order Moment Advection for Salt */
(PID.TID 0000.0001)                   F
(PID.TID 0000.0001)     ;
(PID.TID 0000.0001) AdamsBashforthGs = /* apply Adams-Bashforth extrapolation on Gs */
(PID.TID 0000.0001)                   F
(PID.TID 0000.0001)     ;
(PID.TID 0000.0001) AdamsBashforth_S = /* apply Adams-Bashforth extrapolation on Salt */
(PID.TID 0000.0001)                   F
(PID.TID 0000.0001)     ;
(PID.TID 0000.0001) // ===================================
(PID.TID 0000.0001) ATM_PHYS_INIT_FIXED: opening data.atm_gray
(PID.TID 0000.0001)  OPEN_COPY_DATA_FILE: opening file data.atm_gray
(PID.TID 0000.0001) // =======================================================
(PID.TID 0000.0001) // Parameter file "data.atm_gray"
(PID.TID 0000.0001) // =======================================================
(PID.TID 0000.0001) >
(PID.TID 0000.0001) > &atmosphere_nml
(PID.TID 0000.0001) >    turb = .TRUE.,
(PID.TID 0000.0001) >    ldry_convection = .false.,
(PID.TID 0000.0001) >    lwet_convection = .TRUE.,
(PID.TID 0000.0001) >    do_virtual = .false.,
(PID.TID 0000.0001) >    two_stream = .true.,
(PID.TID 0000.0001) >    mixed_layer_bc = .false.,
(PID.TID 0000.0001) >    roughness_heat = 0.05,
(PID.TID 0000.0001) >    roughness_moist = 0.05,
(PID.TID 0000.0001) >    roughness_mom = 0.05,
(PID.TID 0000.0001) > /
(PID.TID 0000.0001) >
(PID.TID 0000.0001) > &radiation_nml
(PID.TID 0000.0001) >  solar_constant= 1365.,
(PID.TID 0000.0001) >  del_sol=1.,
(PID.TID 0000.0001) ># ir_tau_eq=
(PID.TID 0000.0001) ># ir_tau_pole=
(PID.TID 0000.0001) >  atm_abs= 0.22,
(PID.TID 0000.0001) ># value that Ruth is using as default:
(PID.TID 0000.0001) ># atm_abs= 0.2486,
(PID.TID 0000.0001) ># sw_diff=
(PID.TID 0000.0001) ># linear_tau=
(PID.TID 0000.0001) ># del_sw=
(PID.TID 0000.0001) >  albedo_value=0.38,
(PID.TID 0000.0001) ># window=
(PID.TID 0000.0001) ># wv_exponent=
(PID.TID 0000.0001) ># solar_exponent=
(PID.TID 0000.0001) >  wv_exponent=0.,
(PID.TID 0000.0001) > /
(PID.TID 0000.0001) >
(PID.TID 0000.0001) > &lscale_cond_nml
(PID.TID 0000.0001) ># hc =
(PID.TID 0000.0001) ># do_evap=
(PID.TID 0000.0001) > /
(PID.TID 0000.0001) >
(PID.TID 0000.0001) > &dargan_bettsmiller_nml
(PID.TID 0000.0001) >#-- default:
(PID.TID 0000.0001) >#   tau_bm = 7200.,
(PID.TID 0000.0001) >#   rhbm   = 0.8,
(PID.TID 0000.0001) >#   do_virtual   = .FALSE.,
(PID.TID 0000.0001) >#   do_shallower = .FALSE.,
(PID.TID 0000.0001) >#   do_changeqref= .FALSE.,
(PID.TID 0000.0001) >#   do_envsat    = .FALSE.,
(PID.TID 0000.0001) >#   do_taucape   = .FALSE.,
(PID.TID 0000.0001) >#     capetaubm  = 900.,
(PID.TID 0000.0001) >#     tau_min    = 2400.,
(PID.TID 0000.0001) >#   do_bm_shift  = .FALSE.,
(PID.TID 0000.0001) >#-- POG choice:
(PID.TID 0000.0001) >#  rhbm = 0.7,
(PID.TID 0000.0001) >   do_virtual= .TRUE.,
(PID.TID 0000.0001) >   do_shallower= .TRUE.,
(PID.TID 0000.0001) > /
(PID.TID 0000.0001) >
(PID.TID 0000.0001) > &surface_flux_nml
(PID.TID 0000.0001) > /
(PID.TID 0000.0001) >
(PID.TID 0000.0001) > &vert_turb_driver_nml
(PID.TID 0000.0001) >#  do_shallow_conv, do_mellor_yamada,
(PID.TID 0000.0001) >#  gust_scheme, constant_gust, use_tau,
(PID.TID 0000.0001) >#  do_molecular_diffusion
(PID.TID 0000.0001) >  do_mellor_yamada=.FALSE.,
(PID.TID 0000.0001) > /
(PID.TID 0000.0001) >
(PID.TID 0000.0001) > &diffusivity_nml
(PID.TID 0000.0001) >#  fixed_depth, depth_0, frac_inner,
(PID.TID 0000.0001) >#  rich_crit_pbl, entr_ratio, parcel_buoy,
(PID.TID 0000.0001) >#  znom, free_atm_diff, free_atm_skyhi_diff,
(PID.TID 0000.0001) >#  pbl_mcm, rich_crit_diff, mix_len, rich_prandtl,
(PID.TID 0000.0001) >#  background_m, background_t, ampns, ampns_max,
(PID.TID 0000.0001) >#  do_virtual_non_mcm
(PID.TID 0000.0001) > /
(PID.TID 0000.0001) >
(PID.TID 0000.0001) > &monin_obukhov_nml
(PID.TID 0000.0001) > /
(PID.TID 0000.0001) >
(PID.TID 0000.0001) > &my25_turb_nml
(PID.TID 0000.0001) > /
(PID.TID 0000.0001) >
(PID.TID 0000.0001) > &shallow_conv_nml
(PID.TID 0000.0001) > /
(PID.TID 0000.0001) >
(PID.TID 0000.0001) > &mixed_layer_nml
(PID.TID 0000.0001) ># evaporation, qflux_amp, depth, qflux_width
(PID.TID 0000.0001) >  depth=5000.,
(PID.TID 0000.0001) > /
(PID.TID 0000.0001) 
(PID.TID 0000.0001) ATM_PHYS_INIT_FIXED: finished reading data.atm_gray
(PID.TID 0000.0001) MIXED_LAYER_INIT: opening data.atm_gray
(PID.TID 0000.0001)  OPEN_COPY_DATA_FILE: opening file data.atm_gray
(PID.TID 0000.0001) // =======================================================
(PID.TID 0000.0001) // Parameter file "data.atm_gray"
(PID.TID 0000.0001) // =======================================================
(PID.TID 0000.0001) >
(PID.TID 0000.0001) > &atmosphere_nml
(PID.TID 0000.0001) >    turb = .TRUE.,
(PID.TID 0000.0001) >    ldry_convection = .false.,
(PID.TID 0000.0001) >    lwet_convection = .TRUE.,
(PID.TID 0000.0001) >    do_virtual = .false.,
(PID.TID 0000.0001) >    two_stream = .true.,
(PID.TID 0000.0001) >    mixed_layer_bc = .false.,
(PID.TID 0000.0001) >    roughness_heat = 0.05,
(PID.TID 0000.0001) >    roughness_moist = 0.05,
(PID.TID 0000.0001) >    roughness_mom = 0.05,
(PID.TID 0000.0001) > /
(PID.TID 0000.0001) >
(PID.TID 0000.0001) > &radiation_nml
(PID.TID 0000.0001) >  solar_constant= 1365.,
(PID.TID 0000.0001) >  del_sol=1.,
(PID.TID 0000.0001) ># ir_tau_eq=
(PID.TID 0000.0001) ># ir_tau_pole=
(PID.TID 0000.0001) >  atm_abs= 0.22,
(PID.TID 0000.0001) ># value that Ruth is using as default:
(PID.TID 0000.0001) ># atm_abs= 0.2486,
(PID.TID 0000.0001) ># sw_diff=
(PID.TID 0000.0001) ># linear_tau=
(PID.TID 0000.0001) ># del_sw=
(PID.TID 0000.0001) >  albedo_value=0.38,
(PID.TID 0000.0001) ># window=
(PID.TID 0000.0001) ># wv_exponent=
(PID.TID 0000.0001) ># solar_exponent=
(PID.TID 0000.0001) >  wv_exponent=0.,
(PID.TID 0000.0001) > /
(PID.TID 0000.0001) >
(PID.TID 0000.0001) > &lscale_cond_nml
(PID.TID 0000.0001) ># hc =
(PID.TID 0000.0001) ># do_evap=
(PID.TID 0000.0001) > /
(PID.TID 0000.0001) >
(PID.TID 0000.0001) > &dargan_bettsmiller_nml
(PID.TID 0000.0001) >#-- default:
(PID.TID 0000.0001) >#   tau_bm = 7200.,
(PID.TID 0000.0001) >#   rhbm   = 0.8,
(PID.TID 0000.0001) >#   do_virtual   = .FALSE.,
(PID.TID 0000.0001) >#   do_shallower = .FALSE.,
(PID.TID 0000.0001) >#   do_changeqref= .FALSE.,
(PID.TID 0000.0001) >#   do_envsat    = .FALSE.,
(PID.TID 0000.0001) >#   do_taucape   = .FALSE.,
(PID.TID 0000.0001) >#     capetaubm  = 900.,
(PID.TID 0000.0001) >#     tau_min    = 2400.,
(PID.TID 0000.0001) >#   do_bm_shift  = .FALSE.,
(PID.TID 0000.0001) >#-- POG choice:
(PID.TID 0000.0001) >#  rhbm = 0.7,
(PID.TID 0000.0001) >   do_virtual= .TRUE.,
(PID.TID 0000.0001) >   do_shallower= .TRUE.,
(PID.TID 0000.0001) > /
(PID.TID 0000.0001) >
(PID.TID 0000.0001) > &surface_flux_nml
(PID.TID 0000.0001) > /
(PID.TID 0000.0001) >
(PID.TID 0000.0001) > &vert_turb_driver_nml
(PID.TID 0000.0001) >#  do_shallow_conv, do_mellor_yamada,
(PID.TID 0000.0001) >#  gust_scheme, constant_gust, use_tau,
(PID.TID 0000.0001) >#  do_molecular_diffusion
(PID.TID 0000.0001) >  do_mellor_yamada=.FALSE.,
(PID.TID 0000.0001) > /
(PID.TID 0000.0001) >
(PID.TID 0000.0001) > &diffusivity_nml
(PID.TID 0000.0001) >#  fixed_depth, depth_0, frac_inner,
(PID.TID 0000.0001) >#  rich_crit_pbl, entr_ratio, parcel_buoy,
(PID.TID 0000.0001) >#  znom, free_atm_diff, free_atm_skyhi_diff,
(PID.TID 0000.0001) >#  pbl_mcm, rich_crit_diff, mix_len, rich_prandtl,
(PID.TID 0000.0001) >#  background_m, background_t, ampns, ampns_max,
(PID.TID 0000.0001) >#  do_virtual_non_mcm
(PID.TID 0000.0001) > /
(PID.TID 0000.0001) >
(PID.TID 0000.0001) > &monin_obukhov_nml
(PID.TID 0000.0001) > /
(PID.TID 0000.0001) >
(PID.TID 0000.0001) > &my25_turb_nml
(PID.TID 0000.0001) > /
(PID.TID 0000.0001) >
(PID.TID 0000.0001) > &shallow_conv_nml
(PID.TID 0000.0001) > /
(PID.TID 0000.0001) >
(PID.TID 0000.0001) > &mixed_layer_nml
(PID.TID 0000.0001) ># evaporation, qflux_amp, depth, qflux_width
(PID.TID 0000.0001) >  depth=5000.,
(PID.TID 0000.0001) > /
(PID.TID 0000.0001) 
(PID.TID 0000.0001) MIXED_LAYER_INIT: finished reading data.atm_gray
(PID.TID 0000.0001) LSCALE_COND_INIT: opening data.atm_gray
(PID.TID 0000.0001)  OPEN_COPY_DATA_FILE: opening file data.atm_gray
(PID.TID 0000.0001) // =======================================================
(PID.TID 0000.0001) // Parameter file "data.atm_gray"
(PID.TID 0000.0001) // =======================================================
(PID.TID 0000.0001) >
(PID.TID 0000.0001) > &atmosphere_nml
(PID.TID 0000.0001) >    turb = .TRUE.,
(PID.TID 0000.0001) >    ldry_convection = .false.,
(PID.TID 0000.0001) >    lwet_convection = .TRUE.,
(PID.TID 0000.0001) >    do_virtual = .false.,
(PID.TID 0000.0001) >    two_stream = .true.,
(PID.TID 0000.0001) >    mixed_layer_bc = .false.,
(PID.TID 0000.0001) >    roughness_heat = 0.05,
(PID.TID 0000.0001) >    roughness_moist = 0.05,
(PID.TID 0000.0001) >    roughness_mom = 0.05,
(PID.TID 0000.0001) > /
(PID.TID 0000.0001) >
(PID.TID 0000.0001) > &radiation_nml
(PID.TID 0000.0001) >  solar_constant= 1365.,
(PID.TID 0000.0001) >  del_sol=1.,
(PID.TID 0000.0001) ># ir_tau_eq=
(PID.TID 0000.0001) ># ir_tau_pole=
(PID.TID 0000.0001) >  atm_abs= 0.22,
(PID.TID 0000.0001) ># value that Ruth is using as default:
(PID.TID 0000.0001) ># atm_abs= 0.2486,
(PID.TID 0000.0001) ># sw_diff=
(PID.TID 0000.0001) ># linear_tau=
(PID.TID 0000.0001) ># del_sw=
(PID.TID 0000.0001) >  albedo_value=0.38,
(PID.TID 0000.0001) ># window=
(PID.TID 0000.0001) ># wv_exponent=
(PID.TID 0000.0001) ># solar_exponent=
(PID.TID 0000.0001) >  wv_exponent=0.,
(PID.TID 0000.0001) > /
(PID.TID 0000.0001) >
(PID.TID 0000.0001) > &lscale_cond_nml
(PID.TID 0000.0001) ># hc =
(PID.TID 0000.0001) ># do_evap=
(PID.TID 0000.0001) > /
(PID.TID 0000.0001) >
(PID.TID 0000.0001) > &dargan_bettsmiller_nml
(PID.TID 0000.0001) >#-- default:
(PID.TID 0000.0001) >#   tau_bm = 7200.,
(PID.TID 0000.0001) >#   rhbm   = 0.8,
(PID.TID 0000.0001) >#   do_virtual   = .FALSE.,
(PID.TID 0000.0001) >#   do_shallower = .FALSE.,
(PID.TID 0000.0001) >#   do_changeqref= .FALSE.,
(PID.TID 0000.0001) >#   do_envsat    = .FALSE.,
(PID.TID 0000.0001) >#   do_taucape   = .FALSE.,
(PID.TID 0000.0001) >#     capetaubm  = 900.,
(PID.TID 0000.0001) >#     tau_min    = 2400.,
(PID.TID 0000.0001) >#   do_bm_shift  = .FALSE.,
(PID.TID 0000.0001) >#-- POG choice:
(PID.TID 0000.0001) >#  rhbm = 0.7,
(PID.TID 0000.0001) >   do_virtual= .TRUE.,
(PID.TID 0000.0001) >   do_shallower= .TRUE.,
(PID.TID 0000.0001) > /
(PID.TID 0000.0001) >
(PID.TID 0000.0001) > &surface_flux_nml
(PID.TID 0000.0001) > /
(PID.TID 0000.0001) >
(PID.TID 0000.0001) > &vert_turb_driver_nml
(PID.TID 0000.0001) >#  do_shallow_conv, do_mellor_yamada,
(PID.TID 0000.0001) >#  gust_scheme, constant_gust, use_tau,
(PID.TID 0000.0001) >#  do_molecular_diffusion
(PID.TID 0000.0001) >  do_mellor_yamada=.FALSE.,
(PID.TID 0000.0001) > /
(PID.TID 0000.0001) >
(PID.TID 0000.0001) > &diffusivity_nml
(PID.TID 0000.0001) >#  fixed_depth, depth_0, frac_inner,
(PID.TID 0000.0001) >#  rich_crit_pbl, entr_ratio, parcel_buoy,
(PID.TID 0000.0001) >#  znom, free_atm_diff, free_atm_skyhi_diff,
(PID.TID 0000.0001) >#  pbl_mcm, rich_crit_diff, mix_len, rich_prandtl,
(PID.TID 0000.0001) >#  background_m, background_t, ampns, ampns_max,
(PID.TID 0000.0001) >#  do_virtual_non_mcm
(PID.TID 0000.0001) > /
(PID.TID 0000.0001) >
(PID.TID 0000.0001) > &monin_obukhov_nml
(PID.TID 0000.0001) > /
(PID.TID 0000.0001) >
(PID.TID 0000.0001) > &my25_turb_nml
(PID.TID 0000.0001) > /
(PID.TID 0000.0001) >
(PID.TID 0000.0001) > &shallow_conv_nml
(PID.TID 0000.0001) > /
(PID.TID 0000.0001) >
(PID.TID 0000.0001) > &mixed_layer_nml
(PID.TID 0000.0001) ># evaporation, qflux_amp, depth, qflux_width
(PID.TID 0000.0001) >  depth=5000.,
(PID.TID 0000.0001) > /
(PID.TID 0000.0001) 
(PID.TID 0000.0001) LSCALE_COND_INIT: finished reading data.atm_gray
(PID.TID 0000.0001) DARGAN_BETTSMILLER_init: opening data.atm_gray
(PID.TID 0000.0001)  OPEN_COPY_DATA_FILE: opening file data.atm_gray
(PID.TID 0000.0001) // =======================================================
(PID.TID 0000.0001) // Parameter file "data.atm_gray"
(PID.TID 0000.0001) // =======================================================
(PID.TID 0000.0001) >
(PID.TID 0000.0001) > &atmosphere_nml
(PID.TID 0000.0001) >    turb = .TRUE.,
(PID.TID 0000.0001) >    ldry_convection = .false.,
(PID.TID 0000.0001) >    lwet_convection = .TRUE.,
(PID.TID 0000.0001) >    do_virtual = .false.,
(PID.TID 0000.0001) >    two_stream = .true.,
(PID.TID 0000.0001) >    mixed_layer_bc = .false.,
(PID.TID 0000.0001) >    roughness_heat = 0.05,
(PID.TID 0000.0001) >    roughness_moist = 0.05,
(PID.TID 0000.0001) >    roughness_mom = 0.05,
(PID.TID 0000.0001) > /
(PID.TID 0000.0001) >
(PID.TID 0000.0001) > &radiation_nml
(PID.TID 0000.0001) >  solar_constant= 1365.,
(PID.TID 0000.0001) >  del_sol=1.,
(PID.TID 0000.0001) ># ir_tau_eq=
(PID.TID 0000.0001) ># ir_tau_pole=
(PID.TID 0000.0001) >  atm_abs= 0.22,
(PID.TID 0000.0001) ># value that Ruth is using as default:
(PID.TID 0000.0001) ># atm_abs= 0.2486,
(PID.TID 0000.0001) ># sw_diff=
(PID.TID 0000.0001) ># linear_tau=
(PID.TID 0000.0001) ># del_sw=
(PID.TID 0000.0001) >  albedo_value=0.38,
(PID.TID 0000.0001) ># window=
(PID.TID 0000.0001) ># wv_exponent=
(PID.TID 0000.0001) ># solar_exponent=
(PID.TID 0000.0001) >  wv_exponent=0.,
(PID.TID 0000.0001) > /
(PID.TID 0000.0001) >
(PID.TID 0000.0001) > &lscale_cond_nml
(PID.TID 0000.0001) ># hc =
(PID.TID 0000.0001) ># do_evap=
(PID.TID 0000.0001) > /
(PID.TID 0000.0001) >
(PID.TID 0000.0001) > &dargan_bettsmiller_nml
(PID.TID 0000.0001) >#-- default:
(PID.TID 0000.0001) >#   tau_bm = 7200.,
(PID.TID 0000.0001) >#   rhbm   = 0.8,
(PID.TID 0000.0001) >#   do_virtual   = .FALSE.,
(PID.TID 0000.0001) >#   do_shallower = .FALSE.,
(PID.TID 0000.0001) >#   do_changeqref= .FALSE.,
(PID.TID 0000.0001) >#   do_envsat    = .FALSE.,
(PID.TID 0000.0001) >#   do_taucape   = .FALSE.,
(PID.TID 0000.0001) >#     capetaubm  = 900.,
(PID.TID 0000.0001) >#     tau_min    = 2400.,
(PID.TID 0000.0001) >#   do_bm_shift  = .FALSE.,
(PID.TID 0000.0001) >#-- POG choice:
(PID.TID 0000.0001) >#  rhbm = 0.7,
(PID.TID 0000.0001) >   do_virtual= .TRUE.,
(PID.TID 0000.0001) >   do_shallower= .TRUE.,
(PID.TID 0000.0001) > /
(PID.TID 0000.0001) >
(PID.TID 0000.0001) > &surface_flux_nml
(PID.TID 0000.0001) > /
(PID.TID 0000.0001) >
(PID.TID 0000.0001) > &vert_turb_driver_nml
(PID.TID 0000.0001) >#  do_shallow_conv, do_mellor_yamada,
(PID.TID 0000.0001) >#  gust_scheme, constant_gust, use_tau,
(PID.TID 0000.0001) >#  do_molecular_diffusion
(PID.TID 0000.0001) >  do_mellor_yamada=.FALSE.,
(PID.TID 0000.0001) > /
(PID.TID 0000.0001) >
(PID.TID 0000.0001) > &diffusivity_nml
(PID.TID 0000.0001) >#  fixed_depth, depth_0, frac_inner,
(PID.TID 0000.0001) >#  rich_crit_pbl, entr_ratio, parcel_buoy,
(PID.TID 0000.0001) >#  znom, free_atm_diff, free_atm_skyhi_diff,
(PID.TID 0000.0001) >#  pbl_mcm, rich_crit_diff, mix_len, rich_prandtl,
(PID.TID 0000.0001) >#  background_m, background_t, ampns, ampns_max,
(PID.TID 0000.0001) >#  do_virtual_non_mcm
(PID.TID 0000.0001) > /
(PID.TID 0000.0001) >
(PID.TID 0000.0001) > &monin_obukhov_nml
(PID.TID 0000.0001) > /
(PID.TID 0000.0001) >
(PID.TID 0000.0001) > &my25_turb_nml
(PID.TID 0000.0001) > /
(PID.TID 0000.0001) >
(PID.TID 0000.0001) > &shallow_conv_nml
(PID.TID 0000.0001) > /
(PID.TID 0000.0001) >
(PID.TID 0000.0001) > &mixed_layer_nml
(PID.TID 0000.0001) ># evaporation, qflux_amp, depth, qflux_width
(PID.TID 0000.0001) >  depth=5000.,
(PID.TID 0000.0001) > /
(PID.TID 0000.0001) 
(PID.TID 0000.0001) DARGAB_BETTSMILLER_INIT: finished reading data.atm_gray
(PID.TID 0000.0001) RADIATION_INIT: opening data.atm_gray
(PID.TID 0000.0001)  OPEN_COPY_DATA_FILE: opening file data.atm_gray
(PID.TID 0000.0001) // =======================================================
(PID.TID 0000.0001) // Parameter file "data.atm_gray"
(PID.TID 0000.0001) // =======================================================
(PID.TID 0000.0001) >
(PID.TID 0000.0001) > &atmosphere_nml
(PID.TID 0000.0001) >    turb = .TRUE.,
(PID.TID 0000.0001) >    ldry_convection = .false.,
(PID.TID 0000.0001) >    lwet_convection = .TRUE.,
(PID.TID 0000.0001) >    do_virtual = .false.,
(PID.TID 0000.0001) >    two_stream = .true.,
(PID.TID 0000.0001) >    mixed_layer_bc = .false.,
(PID.TID 0000.0001) >    roughness_heat = 0.05,
(PID.TID 0000.0001) >    roughness_moist = 0.05,
(PID.TID 0000.0001) >    roughness_mom = 0.05,
(PID.TID 0000.0001) > /
(PID.TID 0000.0001) >
(PID.TID 0000.0001) > &radiation_nml
(PID.TID 0000.0001) >  solar_constant= 1365.,
(PID.TID 0000.0001) >  del_sol=1.,
(PID.TID 0000.0001) ># ir_tau_eq=
(PID.TID 0000.0001) ># ir_tau_pole=
(PID.TID 0000.0001) >  atm_abs= 0.22,
(PID.TID 0000.0001) ># value that Ruth is using as default:
(PID.TID 0000.0001) ># atm_abs= 0.2486,
(PID.TID 0000.0001) ># sw_diff=
(PID.TID 0000.0001) ># linear_tau=
(PID.TID 0000.0001) ># del_sw=
(PID.TID 0000.0001) >  albedo_value=0.38,
(PID.TID 0000.0001) ># window=
(PID.TID 0000.0001) ># wv_exponent=
(PID.TID 0000.0001) ># solar_exponent=
(PID.TID 0000.0001) >  wv_exponent=0.,
(PID.TID 0000.0001) > /
(PID.TID 0000.0001) >
(PID.TID 0000.0001) > &lscale_cond_nml
(PID.TID 0000.0001) ># hc =
(PID.TID 0000.0001) ># do_evap=
(PID.TID 0000.0001) > /
(PID.TID 0000.0001) >
(PID.TID 0000.0001) > &dargan_bettsmiller_nml
(PID.TID 0000.0001) >#-- default:
(PID.TID 0000.0001) >#   tau_bm = 7200.,
(PID.TID 0000.0001) >#   rhbm   = 0.8,
(PID.TID 0000.0001) >#   do_virtual   = .FALSE.,
(PID.TID 0000.0001) >#   do_shallower = .FALSE.,
(PID.TID 0000.0001) >#   do_changeqref= .FALSE.,
(PID.TID 0000.0001) >#   do_envsat    = .FALSE.,
(PID.TID 0000.0001) >#   do_taucape   = .FALSE.,
(PID.TID 0000.0001) >#     capetaubm  = 900.,
(PID.TID 0000.0001) >#     tau_min    = 2400.,
(PID.TID 0000.0001) >#   do_bm_shift  = .FALSE.,
(PID.TID 0000.0001) >#-- POG choice:
(PID.TID 0000.0001) >#  rhbm = 0.7,
(PID.TID 0000.0001) >   do_virtual= .TRUE.,
(PID.TID 0000.0001) >   do_shallower= .TRUE.,
(PID.TID 0000.0001) > /
(PID.TID 0000.0001) >
(PID.TID 0000.0001) > &surface_flux_nml
(PID.TID 0000.0001) > /
(PID.TID 0000.0001) >
(PID.TID 0000.0001) > &vert_turb_driver_nml
(PID.TID 0000.0001) >#  do_shallow_conv, do_mellor_yamada,
(PID.TID 0000.0001) >#  gust_scheme, constant_gust, use_tau,
(PID.TID 0000.0001) >#  do_molecular_diffusion
(PID.TID 0000.0001) >  do_mellor_yamada=.FALSE.,
(PID.TID 0000.0001) > /
(PID.TID 0000.0001) >
(PID.TID 0000.0001) > &diffusivity_nml
(PID.TID 0000.0001) >#  fixed_depth, depth_0, frac_inner,
(PID.TID 0000.0001) >#  rich_crit_pbl, entr_ratio, parcel_buoy,
(PID.TID 0000.0001) >#  znom, free_atm_diff, free_atm_skyhi_diff,
(PID.TID 0000.0001) >#  pbl_mcm, rich_crit_diff, mix_len, rich_prandtl,
(PID.TID 0000.0001) >#  background_m, background_t, ampns, ampns_max,
(PID.TID 0000.0001) >#  do_virtual_non_mcm
(PID.TID 0000.0001) > /
(PID.TID 0000.0001) >
(PID.TID 0000.0001) > &monin_obukhov_nml
(PID.TID 0000.0001) > /
(PID.TID 0000.0001) >
(PID.TID 0000.0001) > &my25_turb_nml
(PID.TID 0000.0001) > /
(PID.TID 0000.0001) >
(PID.TID 0000.0001) > &shallow_conv_nml
(PID.TID 0000.0001) > /
(PID.TID 0000.0001) >
(PID.TID 0000.0001) > &mixed_layer_nml
(PID.TID 0000.0001) ># evaporation, qflux_amp, depth, qflux_width
(PID.TID 0000.0001) >  depth=5000.,
(PID.TID 0000.0001) > /
(PID.TID 0000.0001) 
(PID.TID 0000.0001) RADIATION_INIT: finished reading data.atm_gray
(PID.TID 0000.0001) VERT_TURB_DRIVER_INIT: opening data.atm_gray
(PID.TID 0000.0001)  OPEN_COPY_DATA_FILE: opening file data.atm_gray
(PID.TID 0000.0001) // =======================================================
(PID.TID 0000.0001) // Parameter file "data.atm_gray"
(PID.TID 0000.0001) // =======================================================
(PID.TID 0000.0001) >
(PID.TID 0000.0001) > &atmosphere_nml
(PID.TID 0000.0001) >    turb = .TRUE.,
(PID.TID 0000.0001) >    ldry_convection = .false.,
(PID.TID 0000.0001) >    lwet_convection = .TRUE.,
(PID.TID 0000.0001) >    do_virtual = .false.,
(PID.TID 0000.0001) >    two_stream = .true.,
(PID.TID 0000.0001) >    mixed_layer_bc = .false.,
(PID.TID 0000.0001) >    roughness_heat = 0.05,
(PID.TID 0000.0001) >    roughness_moist = 0.05,
(PID.TID 0000.0001) >    roughness_mom = 0.05,
(PID.TID 0000.0001) > /
(PID.TID 0000.0001) >
(PID.TID 0000.0001) > &radiation_nml
(PID.TID 0000.0001) >  solar_constant= 1365.,
(PID.TID 0000.0001) >  del_sol=1.,
(PID.TID 0000.0001) ># ir_tau_eq=
(PID.TID 0000.0001) ># ir_tau_pole=
(PID.TID 0000.0001) >  atm_abs= 0.22,
(PID.TID 0000.0001) ># value that Ruth is using as default:
(PID.TID 0000.0001) ># atm_abs= 0.2486,
(PID.TID 0000.0001) ># sw_diff=
(PID.TID 0000.0001) ># linear_tau=
(PID.TID 0000.0001) ># del_sw=
(PID.TID 0000.0001) >  albedo_value=0.38,
(PID.TID 0000.0001) ># window=
(PID.TID 0000.0001) ># wv_exponent=
(PID.TID 0000.0001) ># solar_exponent=
(PID.TID 0000.0001) >  wv_exponent=0.,
(PID.TID 0000.0001) > /
(PID.TID 0000.0001) >
(PID.TID 0000.0001) > &lscale_cond_nml
(PID.TID 0000.0001) ># hc =
(PID.TID 0000.0001) ># do_evap=
(PID.TID 0000.0001) > /
(PID.TID 0000.0001) >
(PID.TID 0000.0001) > &dargan_bettsmiller_nml
(PID.TID 0000.0001) >#-- default:
(PID.TID 0000.0001) >#   tau_bm = 7200.,
(PID.TID 0000.0001) >#   rhbm   = 0.8,
(PID.TID 0000.0001) >#   do_virtual   = .FALSE.,
(PID.TID 0000.0001) >#   do_shallower = .FALSE.,
(PID.TID 0000.0001) >#   do_changeqref= .FALSE.,
(PID.TID 0000.0001) >#   do_envsat    = .FALSE.,
(PID.TID 0000.0001) >#   do_taucape   = .FALSE.,
(PID.TID 0000.0001) >#     capetaubm  = 900.,
(PID.TID 0000.0001) >#     tau_min    = 2400.,
(PID.TID 0000.0001) >#   do_bm_shift  = .FALSE.,
(PID.TID 0000.0001) >#-- POG choice:
(PID.TID 0000.0001) >#  rhbm = 0.7,
(PID.TID 0000.0001) >   do_virtual= .TRUE.,
(PID.TID 0000.0001) >   do_shallower= .TRUE.,
(PID.TID 0000.0001) > /
(PID.TID 0000.0001) >
(PID.TID 0000.0001) > &surface_flux_nml
(PID.TID 0000.0001) > /
(PID.TID 0000.0001) >
(PID.TID 0000.0001) > &vert_turb_driver_nml
(PID.TID 0000.0001) >#  do_shallow_conv, do_mellor_yamada,
(PID.TID 0000.0001) >#  gust_scheme, constant_gust, use_tau,
(PID.TID 0000.0001) >#  do_molecular_diffusion
(PID.TID 0000.0001) >  do_mellor_yamada=.FALSE.,
(PID.TID 0000.0001) > /
(PID.TID 0000.0001) >
(PID.TID 0000.0001) > &diffusivity_nml
(PID.TID 0000.0001) >#  fixed_depth, depth_0, frac_inner,
(PID.TID 0000.0001) >#  rich_crit_pbl, entr_ratio, parcel_buoy,
(PID.TID 0000.0001) >#  znom, free_atm_diff, free_atm_skyhi_diff,
(PID.TID 0000.0001) >#  pbl_mcm, rich_crit_diff, mix_len, rich_prandtl,
(PID.TID 0000.0001) >#  background_m, background_t, ampns, ampns_max,
(PID.TID 0000.0001) >#  do_virtual_non_mcm
(PID.TID 0000.0001) > /
(PID.TID 0000.0001) >
(PID.TID 0000.0001) > &monin_obukhov_nml
(PID.TID 0000.0001) > /
(PID.TID 0000.0001) >
(PID.TID 0000.0001) > &my25_turb_nml
(PID.TID 0000.0001) > /
(PID.TID 0000.0001) >
(PID.TID 0000.0001) > &shallow_conv_nml
(PID.TID 0000.0001) > /
(PID.TID 0000.0001) >
(PID.TID 0000.0001) > &mixed_layer_nml
(PID.TID 0000.0001) ># evaporation, qflux_amp, depth, qflux_width
(PID.TID 0000.0001) >  depth=5000.,
(PID.TID 0000.0001) > /
(PID.TID 0000.0001) 
(PID.TID 0000.0001) VERT_TURB_DRIVER_INIT: finished reading data.atm_gray
(PID.TID 0000.0001) ------------------------------------------------------------
(PID.TID 0000.0001) DIAGNOSTICS_SET_LEVELS: done
(PID.TID 0000.0001)  Total Nb of available Diagnostics: ndiagt=   218
(PID.TID 0000.0001)  write list of available Diagnostics to file: available_diagnostics.log
(PID.TID 0000.0001) SETDIAG: Allocate  1 x  1 Levels for Diagnostic #    23 ETAN
(PID.TID 0000.0001) SETDIAG: Allocate  1 x  1 Levels for Diagnostic #    24 ETANSQ
(PID.TID 0000.0001) SETDIAG: Allocate  1 x  1 Levels for Diagnostic #    25 DETADT2
(PID.TID 0000.0001) SETDIAG: Allocate  1 x  1 Levels for Diagnostic #   195 AtPhCnvP
(PID.TID 0000.0001) SETDIAG: Allocate  1 x  1 Levels for Diagnostic #   196 AtPhLscP
(PID.TID 0000.0001) SETDIAG: Allocate  1 x  1 Levels for Diagnostic #   204 AtPhSens
(PID.TID 0000.0001) SETDIAG: Allocate  1 x  1 Levels for Diagnostic #   205 AtPhEvap
(PID.TID 0000.0001) SETDIAG: Allocate  1 x  1 Levels for Diagnostic #   206 AtPhTauX
(PID.TID 0000.0001) SETDIAG: Allocate  1 x  1 Levels for Diagnostic #   207 AtPhTauY
(PID.TID 0000.0001) SETDIAG: Allocate  1 x  1 Levels for Diagnostic #   188 AtPh_SST
(PID.TID 0000.0001) SETDIAG: Allocate  1 x  1 Levels for Diagnostic #   197 AtPhInSR
(PID.TID 0000.0001) SETDIAG: Allocate  1 x  1 Levels for Diagnostic #   199 AtPhOLR
(PID.TID 0000.0001) SETDIAG: Allocate  1 x  1 Levels for Diagnostic #   201 AtPhNSSR
(PID.TID 0000.0001) SETDIAG: Allocate  1 x  1 Levels for Diagnostic #   202 AtPhDSLR
(PID.TID 0000.0001) SETDIAG: Allocate  1 x  1 Levels for Diagnostic #   203 AtPhUSLR
(PID.TID 0000.0001) SETDIAG: Allocate 26 x  1 Levels for Diagnostic #    29 UVEL
(PID.TID 0000.0001) SETDIAG: Allocate 26 x  1 Levels for Diagnostic #    30 VVEL
(PID.TID 0000.0001) SETDIAG: Allocate 26 x  1 Levels for Diagnostic #    31 WVEL
(PID.TID 0000.0001) SETDIAG: Allocate 26 x  1 Levels for Diagnostic #    26 THETA
(PID.TID 0000.0001) SETDIAG: Allocate 26 x  1 Levels for Diagnostic #    27 SALT
(PID.TID 0000.0001) SETDIAG: Allocate 26 x  1 Levels for Diagnostic #    34 UVELSQ
(PID.TID 0000.0001) SETDIAG: Allocate 26 x  1 Levels for Diagnostic #    35 VVELSQ
(PID.TID 0000.0001) SETDIAG: Allocate 26 x  1 Levels for Diagnostic #    36 WVELSQ
(PID.TID 0000.0001) SETDIAG: Allocate 26 x  1 Levels for Diagnostic #    32 THETASQ
(PID.TID 0000.0001) SETDIAG: Allocate 26 x  1 Levels for Diagnostic #    33 SALTSQ
(PID.TID 0000.0001) SETDIAG: Allocate 26 x  1 Levels for Diagnostic #    43 UVELMASS
(PID.TID 0000.0001) SETDIAG: Allocate 26 x  1 Levels for Diagnostic #    44 VVELMASS
(PID.TID 0000.0001) SETDIAG: Allocate 26 x  1 Levels for Diagnostic #    39 UV_VEL_C
(PID.TID 0000.0001) SETDIAG: Allocate 26 x  1 Levels for Diagnostic #    28 RELHUM
(PID.TID 0000.0001)   space allocated for all diagnostics:     379 levels
(PID.TID 0000.0001)   set mate pointer for diag #    29  UVEL     , Parms: UUR     MR , mate:    30
(PID.TID 0000.0001)   set mate pointer for diag #    30  VVEL     , Parms: VVR     MR , mate:    29
(PID.TID 0000.0001)   set mate pointer for diag #    34  UVELSQ   , Parms: UURP    MR , mate:    35
(PID.TID 0000.0001)   set mate pointer for diag #    35  VVELSQ   , Parms: VVRP    MR , mate:    34
(PID.TID 0000.0001)   set mate pointer for diag #    43  UVELMASS , Parms: UUr     MR , mate:    44
(PID.TID 0000.0001)   set mate pointer for diag #    44  VVELMASS , Parms: VVr     MR , mate:    43
(PID.TID 0000.0001)   set mate pointer for diag #    39  UV_VEL_C , Parms: UMR     MR , mate:    39
(PID.TID 0000.0001) DIAGNOSTICS_SET_POINTERS: Set levels for Outp.Stream: surfDiag
(PID.TID 0000.0001)  Levels:       1.
(PID.TID 0000.0001) DIAGNOSTICS_SET_POINTERS: Set levels for Outp.Stream: dynDiag
(PID.TID 0000.0001)  Levels:       1.   2.   3.   4.   5.   6.   7.   8.   9.  10.  11.  12.  13.  14.  15.  16.  17.  18.  19.  20.
(PID.TID 0000.0001)  Levels:      21.  22.  23.  24.  25.  26.
(PID.TID 0000.0001) DIAGNOSTICS_SET_POINTERS: done
(PID.TID 0000.0001) ------------------------------------------------------------
(PID.TID 0000.0001) DIAGSTATS_SET_REGIONS: define no region
(PID.TID 0000.0001) ------------------------------------------------------------
(PID.TID 0000.0001) SETDIAG: Allocate  1 Levels for Stats-Diag #    23 ETAN
(PID.TID 0000.0001) SETDIAG: Allocate 26 Levels for Stats-Diag #    26 THETA
(PID.TID 0000.0001) SETDIAG: Allocate 26 Levels for Stats-Diag #    27 SALT
(PID.TID 0000.0001) SETDIAG: Allocate 26 Levels for Stats-Diag #    28 RELHUM
(PID.TID 0000.0001) SETDIAG: Allocate 26 Levels for Stats-Diag #    37 UE_VEL_C
(PID.TID 0000.0001) SETDIAG: Allocate 26 Levels for Stats-Diag #    38 VN_VEL_C
(PID.TID 0000.0001) SETDIAG: Allocate 26 Levels for Stats-Diag #    31 WVEL
(PID.TID 0000.0001) SETDIAG: Allocate 26 Levels for Stats-Diag #   189 AtPhdTdt
(PID.TID 0000.0001) SETDIAG: Allocate 26 Levels for Stats-Diag #   190 AtPhdQdt
(PID.TID 0000.0001) SETDIAG: Allocate 26 Levels for Stats-Diag #   191 AtPhdUdt
(PID.TID 0000.0001) SETDIAG: Allocate 26 Levels for Stats-Diag #   192 AtPhdVdt
(PID.TID 0000.0001) SETDIAG: Allocate 26 Levels for Stats-Diag #   193 AtPhDifT
(PID.TID 0000.0001) SETDIAG: Allocate 26 Levels for Stats-Diag #   194 AtPhDifM
(PID.TID 0000.0001) SETDIAG: Allocate 26 Levels for Stats-Diag #   218 AtPhDisH
(PID.TID 0000.0001) SETDIAG: Allocate 26 Levels for Stats-Diag #   216 AtPhdtTg
(PID.TID 0000.0001) SETDIAG: Allocate 26 Levels for Stats-Diag #   217 AtPhdtQg
(PID.TID 0000.0001) SETDIAG: Allocate 26 Levels for Stats-Diag #   187 SHAP_dKE
(PID.TID 0000.0001) SETDIAG: Allocate 26 Levels for Stats-Diag #    98 MoistCor
(PID.TID 0000.0001) SETDIAG: Allocate  1 Levels for Stats-Diag #   204 AtPhSens
(PID.TID 0000.0001) SETDIAG: Allocate  1 Levels for Stats-Diag #   205 AtPhEvap
(PID.TID 0000.0001) SETDIAG: Allocate  1 Levels for Stats-Diag #   206 AtPhTauX
(PID.TID 0000.0001) SETDIAG: Allocate  1 Levels for Stats-Diag #   207 AtPhTauY
(PID.TID 0000.0001) SETDIAG: Allocate  1 Levels for Stats-Diag #   195 AtPhCnvP
(PID.TID 0000.0001) SETDIAG: Allocate  1 Levels for Stats-Diag #   196 AtPhLscP
(PID.TID 0000.0001) SETDIAG: Allocate  1 Levels for Stats-Diag #   188 AtPh_SST
(PID.TID 0000.0001) SETDIAG: Allocate  1 Levels for Stats-Diag #   197 AtPhInSR
(PID.TID 0000.0001) SETDIAG: Allocate  1 Levels for Stats-Diag #   199 AtPhOLR
(PID.TID 0000.0001) SETDIAG: Allocate  1 Levels for Stats-Diag #   201 AtPhNSSR
(PID.TID 0000.0001) SETDIAG: Allocate  1 Levels for Stats-Diag #   202 AtPhDSLR
(PID.TID 0000.0001) SETDIAG: Allocate  1 Levels for Stats-Diag #   203 AtPhUSLR
(PID.TID 0000.0001)   space allocated for all stats-diags:     455 levels
(PID.TID 0000.0001) DIAGSTATS_SET_POINTERS: done
(PID.TID 0000.0001) ------------------------------------------------------------
(PID.TID 0000.0001) DIAGSTATS_INI_IO: open file: dynStDiag.0000000000.txt , unit=     9
(PID.TID 0000.0001) DIAGSTATS_INI_IO: open file: diffStDiag.0000000000.txt , unit=    10
(PID.TID 0000.0001) DIAGSTATS_INI_IO: open file: flxStDiag.0000000000.txt , unit=    16
(PID.TID 0000.0001) INI_GLOBAL_DOMAIN: Found  24 CS-corner Pts in the domain
(PID.TID 0000.0001) %MON fCori_max                    =   1.4574827780704E-04
(PID.TID 0000.0001) %MON fCori_min                    =  -1.4574827780704E-04
(PID.TID 0000.0001) %MON fCori_mean                   =   0.0000000000000E+00
(PID.TID 0000.0001) %MON fCori_sd                     =   8.4202189509968E-05
(PID.TID 0000.0001) %MON fCoriG_max                   =   1.4584247033981E-04
(PID.TID 0000.0001) %MON fCoriG_min                   =  -1.4584247033981E-04
(PID.TID 0000.0001) %MON fCoriG_mean                  =   2.2587545260115E-21
(PID.TID 0000.0001) %MON fCoriG_sd                    =   8.4202189509968E-05
(PID.TID 0000.0001) %MON fCoriCos_max                 =   1.4580166994612E-04
(PID.TID 0000.0001) %MON fCoriCos_min                 =   5.2407700865903E-06
(PID.TID 0000.0001) %MON fCoriCos_mean                =   1.1514045869113E-04
(PID.TID 0000.0001) %MON fCoriCos_sd                  =   3.0375849106513E-05
(PID.TID 0000.0001) INI_CG2D: CG2D normalisation factor =  9.9119603843467461E-06
(PID.TID 0000.0001) INI_CG2D: cg2dTolerance = 1.403820515321401E-10 (Area=5.0986421043E+14)
(PID.TID 0000.0001) 
(PID.TID 0000.0001) // =======================================================
(PID.TID 0000.0001) // Model configuration
(PID.TID 0000.0001) // =======================================================
(PID.TID 0000.0001) //
(PID.TID 0000.0001) // "Physical" paramters ( PARM01 in namelist )
(PID.TID 0000.0001) //
(PID.TID 0000.0001) buoyancyRelation = /* Type of relation to get Buoyancy */
(PID.TID 0000.0001)               'ATMOSPHERIC'
(PID.TID 0000.0001)     ;
(PID.TID 0000.0001) fluidIsAir   =  /* fluid major constituent is Air */
(PID.TID 0000.0001)                   T
(PID.TID 0000.0001)     ;
(PID.TID 0000.0001) fluidIsWater =  /* fluid major constituent is Water */
(PID.TID 0000.0001)                   F
(PID.TID 0000.0001)     ;
(PID.TID 0000.0001) usingPCoords =  /* use p (or p*) vertical coordinate */
(PID.TID 0000.0001)                   T
(PID.TID 0000.0001)     ;
(PID.TID 0000.0001) usingZCoords =  /* use z (or z*) vertical coordinate */
(PID.TID 0000.0001)                   F
(PID.TID 0000.0001)     ;
(PID.TID 0000.0001) tRef =   /* Reference temperature profile ( oC or K ) */
(PID.TID 0000.0001)                 2.951000000000000E+02,      /* K =  1 */
(PID.TID 0000.0001)                 2.952000000000000E+02,      /* K =  2 */
(PID.TID 0000.0001)                 2.954000000000000E+02,      /* K =  3 */
(PID.TID 0000.0001)                 2.956000000000000E+02,      /* K =  4 */
(PID.TID 0000.0001)                 2.960000000000000E+02,      /* K =  5 */
(PID.TID 0000.0001)                 2.966000000000000E+02,      /* K =  6 */
(PID.TID 0000.0001)                 2.973000000000000E+02,      /* K =  7 */
(PID.TID 0000.0001)                 2.982000000000000E+02,      /* K =  8 */
(PID.TID 0000.0001)                 2.993000000000000E+02,      /* K =  9 */
(PID.TID 0000.0001)                 3.006000000000000E+02,      /* K = 10 */
(PID.TID 0000.0001)                 3.024000000000000E+02,      /* K = 11 */
(PID.TID 0000.0001)                 3.059000000000000E+02,      /* K = 12 */
(PID.TID 0000.0001)                 3.118000000000000E+02,      /* K = 13 */
(PID.TID 0000.0001)                 3.218000000000000E+02,      /* K = 14 */
(PID.TID 0000.0001)                 3.383000000000000E+02,      /* K = 15 */
(PID.TID 0000.0001)                 3.595000000000000E+02,      /* K = 16 */
(PID.TID 0000.0001)                 3.828000000000000E+02,      /* K = 17 */
(PID.TID 0000.0001)                 4.086000000000000E+02,      /* K = 18 */
(PID.TID 0000.0001)                 4.375000000000000E+02,      /* K = 19 */
(PID.TID 0000.0001)                 4.706000000000000E+02,      /* K = 20 */
(PID.TID 0000.0001)                 5.092000000000000E+02,      /* K = 21 */
(PID.TID 0000.0001)                 5.558000000000000E+02,      /* K = 22 */
(PID.TID 0000.0001)                 6.149000000000000E+02,      /* K = 23 */
(PID.TID 0000.0001)                 6.963000000000000E+02,      /* K = 24 */
(PID.TID 0000.0001)                 8.272000000000000E+02,      /* K = 25 */
(PID.TID 0000.0001)                 1.153600000000000E+03       /* K = 26 */
(PID.TID 0000.0001)     ;
(PID.TID 0000.0001) sRef =   /* Reference salinity profile ( psu ) */
(PID.TID 0000.0001)    26 @  0.000000000000000E+00              /* K =  1: 26 */
(PID.TID 0000.0001)     ;
(PID.TID 0000.0001) useStrainTensionVisc= /* Use StrainTension Form of Viscous Operator */
(PID.TID 0000.0001)                   F
(PID.TID 0000.0001)     ;
(PID.TID 0000.0001) useVariableVisc = /* Use variable horizontal viscosity */
(PID.TID 0000.0001)                   F
(PID.TID 0000.0001)     ;
(PID.TID 0000.0001) useHarmonicVisc = /* Use harmonic horizontal viscosity */
(PID.TID 0000.0001)                   F
(PID.TID 0000.0001)     ;
(PID.TID 0000.0001) useBiharmonicVisc= /* Use biharmonic horiz.  viscosity */
(PID.TID 0000.0001)                   F
(PID.TID 0000.0001)     ;
(PID.TID 0000.0001) useSmag3D = /* Use isotropic 3-D Smagorinsky viscosity */
(PID.TID 0000.0001)                   F
(PID.TID 0000.0001)     ;
(PID.TID 0000.0001) viscAh  =   /* Lateral harmonic viscosity ( m^2/s ) */
(PID.TID 0000.0001)                 0.000000000000000E+00
(PID.TID 0000.0001)     ;
(PID.TID 0000.0001) viscA4  =   /* Lateral biharmonic viscosity ( m^4/s ) */
(PID.TID 0000.0001)                 0.000000000000000E+00
(PID.TID 0000.0001)     ;
(PID.TID 0000.0001) no_slip_sides =  /* Viscous BCs: No-slip sides */
(PID.TID 0000.0001)                   F
(PID.TID 0000.0001)     ;
(PID.TID 0000.0001) sideDragFactor = /* side-drag scaling factor (non-dim) */
(PID.TID 0000.0001)                 2.000000000000000E+00
(PID.TID 0000.0001)     ;
(PID.TID 0000.0001) viscArNr = /* vertical profile of vertical viscosity (Pa^2/s )*/
(PID.TID 0000.0001)    26 @  0.000000000000000E+00              /* K =  1: 26 */
(PID.TID 0000.0001)     ;
(PID.TID 0000.0001) no_slip_bottom =  /* Viscous BCs: No-slip bottom */
(PID.TID 0000.0001)                   F
(PID.TID 0000.0001)     ;
(PID.TID 0000.0001) bottomDragLinear = /* linear bottom-drag coefficient ( m/s ) */
(PID.TID 0000.0001)                 0.000000000000000E+00
(PID.TID 0000.0001)     ;
(PID.TID 0000.0001) bottomDragQuadratic = /* quadratic bottom-drag coefficient (-) */
(PID.TID 0000.0001)                 0.000000000000000E+00
(PID.TID 0000.0001)     ;
(PID.TID 0000.0001) diffKhT =   /* Laplacian diffusion of heat laterally ( m^2/s ) */
(PID.TID 0000.0001)                 0.000000000000000E+00
(PID.TID 0000.0001)     ;
(PID.TID 0000.0001) diffK4T =   /* Biharmonic diffusion of heat laterally ( m^4/s ) */
(PID.TID 0000.0001)                 0.000000000000000E+00
(PID.TID 0000.0001)     ;
(PID.TID 0000.0001) diffKhS =   /* Laplacian diffusion of salt laterally ( m^2/s ) */
(PID.TID 0000.0001)                 0.000000000000000E+00
(PID.TID 0000.0001)     ;
(PID.TID 0000.0001) diffK4S =   /* Biharmonic diffusion of salt laterally ( m^4/s ) */
(PID.TID 0000.0001)                 0.000000000000000E+00
(PID.TID 0000.0001)     ;
(PID.TID 0000.0001) diffKrNrT = /* vertical profile of vertical diffusion of Temp (Pa^2/s )*/
(PID.TID 0000.0001)    26 @  0.000000000000000E+00              /* K =  1: 26 */
(PID.TID 0000.0001)     ;
(PID.TID 0000.0001) diffKrNrS = /* vertical profile of vertical diffusion of Salt (Pa^2/s )*/
(PID.TID 0000.0001)    26 @  0.000000000000000E+00              /* K =  1: 26 */
(PID.TID 0000.0001)     ;
(PID.TID 0000.0001) diffKrBL79surf = /* Surface diffusion for Bryan and Lewis 79 ( m^2/s ) */
(PID.TID 0000.0001)                 0.000000000000000E+00
(PID.TID 0000.0001)     ;
(PID.TID 0000.0001) diffKrBL79deep = /* Deep diffusion for Bryan and Lewis 1979 ( m^2/s ) */
(PID.TID 0000.0001)                 0.000000000000000E+00
(PID.TID 0000.0001)     ;
(PID.TID 0000.0001) diffKrBL79scl = /* Depth scale for Bryan and Lewis 1979 ( m ) */
(PID.TID 0000.0001)                 2.000000000000000E+02
(PID.TID 0000.0001)     ;
(PID.TID 0000.0001) diffKrBL79Ho = /* Turning depth for Bryan and Lewis 1979 ( m ) */
(PID.TID 0000.0001)                -2.000000000000000E+03
(PID.TID 0000.0001)     ;
(PID.TID 0000.0001) ivdc_kappa = /* Implicit Vertical Diffusivity for Convection (Pa^2/s) */
(PID.TID 0000.0001)                 0.000000000000000E+00
(PID.TID 0000.0001)     ;
(PID.TID 0000.0001) hMixCriteria=  /* Criteria for mixed-layer diagnostic */
(PID.TID 0000.0001)                -8.000000000000000E-01
(PID.TID 0000.0001)     ;
(PID.TID 0000.0001) dRhoSmall =  /* Parameter for mixed-layer diagnostic */
(PID.TID 0000.0001)                 1.000000000000000E-06
(PID.TID 0000.0001)     ;
(PID.TID 0000.0001) hMixSmooth=  /* Smoothing parameter for mixed-layer diagnostic */
(PID.TID 0000.0001)                 0.000000000000000E+00
(PID.TID 0000.0001)     ;
(PID.TID 0000.0001) eosType =  /* Type of Equation of State */
(PID.TID 0000.0001)               'IDEALG'
(PID.TID 0000.0001)     ;
(PID.TID 0000.0001) celsius2K = /* 0 degree Celsius converted to Kelvin ( K ) */
(PID.TID 0000.0001)                 2.731500000000000E+02
(PID.TID 0000.0001)     ;
(PID.TID 0000.0001) atm_Rd =    /* gas constant for dry air ( J/kg/K ) */
(PID.TID 0000.0001)                 2.870400000000000E+02
(PID.TID 0000.0001)     ;
(PID.TID 0000.0001) atm_Cp =    /* specific heat (Cp) of dry air ( J/kg/K ) */
(PID.TID 0000.0001)                 1.004640000000000E+03
(PID.TID 0000.0001)     ;
(PID.TID 0000.0001) atm_kappa = /* kappa (=Rd/Cp ) of dry air */
(PID.TID 0000.0001)                 2.857142857142857E-01
(PID.TID 0000.0001)     ;
(PID.TID 0000.0001) atm_Rq =  /* water vap. specific vol. anomaly relative to dry air */
(PID.TID 0000.0001)                 6.078000000000000E-01
(PID.TID 0000.0001)     ;
(PID.TID 0000.0001) atm_Po =    /* standard reference pressure ( Pa ) */
(PID.TID 0000.0001)                 1.000000000000000E+05
(PID.TID 0000.0001)     ;
(PID.TID 0000.0001) thetaConst= /* constant reference for potential temperature ( K ) */
(PID.TID 0000.0001)                 2.951000000000000E+02
(PID.TID 0000.0001)     ;
(PID.TID 0000.0001) integr_GeoPot =  /* select how the geopotential is integrated */
(PID.TID 0000.0001)                       2
(PID.TID 0000.0001)     ;
(PID.TID 0000.0001) selectFindRoSurf=  /* select how Surf.Ref. pressure is defined */
(PID.TID 0000.0001)                       1
(PID.TID 0000.0001)     ;
(PID.TID 0000.0001) rhoConst  = /* Reference density (Boussinesq)  ( kg/m^3 ) */
(PID.TID 0000.0001)                 1.000000000000000E+00
(PID.TID 0000.0001)     ;
(PID.TID 0000.0001) rhoFacC = /* normalized Reference density @ cell-Center (-) */
(PID.TID 0000.0001)    26 @  1.000000000000000E+00              /* K =  1: 26 */
(PID.TID 0000.0001)     ;
(PID.TID 0000.0001) rhoFacF = /* normalized Reference density @ W-Interface (-) */
(PID.TID 0000.0001)    27 @  1.000000000000000E+00              /* K =  1: 27 */
(PID.TID 0000.0001)     ;
(PID.TID 0000.0001) rhoConstFresh = /* Fresh-water reference density ( kg/m^3 ) */
(PID.TID 0000.0001)                 1.000000000000000E+00
(PID.TID 0000.0001)     ;
(PID.TID 0000.0001) gravity =   /* Gravitational acceleration ( m/s^2 ) */
(PID.TID 0000.0001)                 9.800000000000001E+00
(PID.TID 0000.0001)     ;
(PID.TID 0000.0001) gBaro =   /* Barotropic gravity ( m/s^2 ) */
(PID.TID 0000.0001)                 9.800000000000001E+00
(PID.TID 0000.0001)     ;
(PID.TID 0000.0001) rotationPeriod =   /* Rotation Period ( s ) */
(PID.TID 0000.0001)                 8.616400000000000E+04
(PID.TID 0000.0001)     ;
(PID.TID 0000.0001) omega =   /* Angular velocity ( rad/s ) */
(PID.TID 0000.0001)                 7.292123516990375E-05
(PID.TID 0000.0001)     ;
(PID.TID 0000.0001) f0 =   /* Reference coriolis parameter ( 1/s ) */
(PID.TID 0000.0001)                 1.000000000000000E-04
(PID.TID 0000.0001)     ;
(PID.TID 0000.0001) beta =   /* Beta ( 1/(m.s) ) */
(PID.TID 0000.0001)                 9.999999999999999E-12
(PID.TID 0000.0001)     ;
(PID.TID 0000.0001) fPrime =   /* Second coriolis parameter ( 1/s ) */
(PID.TID 0000.0001)                 0.000000000000000E+00
(PID.TID 0000.0001)     ;
(PID.TID 0000.0001) rigidLid =   /* Rigid lid on/off flag */
(PID.TID 0000.0001)                   F
(PID.TID 0000.0001)     ;
(PID.TID 0000.0001) implicitFreeSurface =   /* Implicit free surface on/off flag */
(PID.TID 0000.0001)                   T
(PID.TID 0000.0001)     ;
(PID.TID 0000.0001) freeSurfFac =   /* Implicit free surface factor */
(PID.TID 0000.0001)                 1.000000000000000E+00
(PID.TID 0000.0001)     ;
(PID.TID 0000.0001) implicSurfPress =  /* Surface Pressure implicit factor (0-1)*/
(PID.TID 0000.0001)                 1.000000000000000E+00
(PID.TID 0000.0001)     ;
(PID.TID 0000.0001) implicDiv2Dflow =  /* Barot. Flow Div. implicit factor (0-1)*/
(PID.TID 0000.0001)                 1.000000000000000E+00
(PID.TID 0000.0001)     ;
(PID.TID 0000.0001) uniformLin_PhiSurf = /* use uniform Bo_surf on/off flag*/
(PID.TID 0000.0001)                   F
(PID.TID 0000.0001)     ;
(PID.TID 0000.0001) uniformFreeSurfLev = /* free-surface level-index is uniform */
(PID.TID 0000.0001)                   F
(PID.TID 0000.0001)     ;
(PID.TID 0000.0001) hFacMin =   /* minimum partial cell factor (hFac) */
(PID.TID 0000.0001)                 1.000000000000000E+00
(PID.TID 0000.0001)     ;
(PID.TID 0000.0001) hFacMinDr = /* minimum partial cell thickness (Pa) */
(PID.TID 0000.0001)                 0.000000000000000E+00
(PID.TID 0000.0001)     ;
(PID.TID 0000.0001) exactConserv =  /* Exact Volume Conservation on/off flag*/
(PID.TID 0000.0001)                   T
(PID.TID 0000.0001)     ;
(PID.TID 0000.0001) linFSConserveTr = /* Tracer correction for Lin Free Surface on/off flag*/
(PID.TID 0000.0001)                   F
(PID.TID 0000.0001)     ;
(PID.TID 0000.0001) nonlinFreeSurf = /* Non-linear Free Surf. options (-1,0,1,2,3)*/
(PID.TID 0000.0001)                       4
(PID.TID 0000.0001)      -1,0= Off ; 1,2,3= On, 2=+rescale gU,gV, 3=+update cg2d solv.
(PID.TID 0000.0001)     ;
(PID.TID 0000.0001) hFacInf =   /* lower threshold for hFac (nonlinFreeSurf only)*/
(PID.TID 0000.0001)                 2.000000000000000E-01
(PID.TID 0000.0001)     ;
(PID.TID 0000.0001) hFacSup =   /* upper threshold for hFac (nonlinFreeSurf only)*/
(PID.TID 0000.0001)                 2.000000000000000E+00
(PID.TID 0000.0001)     ;
(PID.TID 0000.0001) select_rStar = /* r* Vertical coord. options (=0 r coord.; >0 uses r*)*/
(PID.TID 0000.0001)                       2
(PID.TID 0000.0001)     ;
(PID.TID 0000.0001) useRealFreshWaterFlux = /* Real Fresh Water Flux on/off flag*/
(PID.TID 0000.0001)                   F
(PID.TID 0000.0001)     ;
(PID.TID 0000.0001) temp_EvPrRn = /* Temp. of Evap/Prec/R (UNSET=use local T)(oC)*/
(PID.TID 0000.0001)                 1.234567000000000E+05
(PID.TID 0000.0001)     ;
(PID.TID 0000.0001) salt_EvPrRn = /* Salin. of Evap/Prec/R (UNSET=use local S)(psu)*/
(PID.TID 0000.0001)                 0.000000000000000E+00
(PID.TID 0000.0001)     ;
(PID.TID 0000.0001) selectAddFluid = /* option for mass source/sink of fluid (=0: off) */
(PID.TID 0000.0001)                       0
(PID.TID 0000.0001)     ;
(PID.TID 0000.0001) temp_addMass = /* Temp. of addMass array (UNSET=use local T)(oC)*/
(PID.TID 0000.0001)                 1.234567000000000E+05
(PID.TID 0000.0001)     ;
(PID.TID 0000.0001) salt_addMass = /* Salin. of addMass array (UNSET=use local S)(psu)*/
(PID.TID 0000.0001)                 0.000000000000000E+00
(PID.TID 0000.0001)     ;
(PID.TID 0000.0001) convertFW2Salt = /* convert F.W. Flux to Salt Flux (-1=use local S)(psu)*/
(PID.TID 0000.0001)                 3.500000000000000E+01
(PID.TID 0000.0001)     ;
(PID.TID 0000.0001) use3Dsolver = /* use 3-D pressure solver on/off flag */
(PID.TID 0000.0001)                   F
(PID.TID 0000.0001)     ;
(PID.TID 0000.0001) nonHydrostatic =  /* Non-Hydrostatic on/off flag */
(PID.TID 0000.0001)                   F
(PID.TID 0000.0001)     ;
(PID.TID 0000.0001) nh_Am2 = /* Non-Hydrostatic terms scaling factor */
(PID.TID 0000.0001)                 1.000000000000000E+00
(PID.TID 0000.0001)     ;
(PID.TID 0000.0001) implicitNHPress = /* Non-Hyd Pressure implicit factor (0-1)*/
(PID.TID 0000.0001)                 1.000000000000000E+00
(PID.TID 0000.0001)     ;
(PID.TID 0000.0001) selectNHfreeSurf = /* Non-Hyd (free-)Surface option */
(PID.TID 0000.0001)                       0
(PID.TID 0000.0001)     ;
(PID.TID 0000.0001) quasiHydrostatic = /* Quasi-Hydrostatic on/off flag */
(PID.TID 0000.0001)                   F
(PID.TID 0000.0001)     ;
(PID.TID 0000.0001) calc_wVelocity = /* vertical velocity calculation on/off flag */
(PID.TID 0000.0001)                   T
(PID.TID 0000.0001)     ;
(PID.TID 0000.0001) momStepping =  /* Momentum equation on/off flag */
(PID.TID 0000.0001)                   T
(PID.TID 0000.0001)     ;
(PID.TID 0000.0001) vectorInvariantMomentum= /* Vector-Invariant Momentum on/off */
(PID.TID 0000.0001)                   T
(PID.TID 0000.0001)     ;
(PID.TID 0000.0001) momAdvection =  /* Momentum advection on/off flag */
(PID.TID 0000.0001)                   T
(PID.TID 0000.0001)     ;
(PID.TID 0000.0001) momViscosity =  /* Momentum viscosity on/off flag */
(PID.TID 0000.0001)                   T
(PID.TID 0000.0001)     ;
(PID.TID 0000.0001) momImplVertAdv= /* Momentum implicit vert. advection on/off*/
(PID.TID 0000.0001)                   F
(PID.TID 0000.0001)     ;
(PID.TID 0000.0001) implicitViscosity = /* Implicit viscosity on/off flag */
(PID.TID 0000.0001)                   F
(PID.TID 0000.0001)     ;
(PID.TID 0000.0001) metricTerms =  /* metric-Terms on/off flag */
(PID.TID 0000.0001)                   F
(PID.TID 0000.0001)     ;
(PID.TID 0000.0001) useNHMTerms = /* Non-Hydrostatic Metric-Terms on/off */
(PID.TID 0000.0001)                   F
(PID.TID 0000.0001)     ;
(PID.TID 0000.0001) selectCoriMap = /* Coriolis Map options (0,1,2,3)*/
(PID.TID 0000.0001)                       2
(PID.TID 0000.0001)     0= f-Plane ; 1= Beta-Plane ; 2= Spherical ; 3= read from file
(PID.TID 0000.0001)     ;
(PID.TID 0000.0001) use3dCoriolis = /* 3-D Coriolis on/off flag */
(PID.TID 0000.0001)                   F
(PID.TID 0000.0001)     ;
(PID.TID 0000.0001) useCoriolis =  /* Coriolis on/off flag */
(PID.TID 0000.0001)                   T
(PID.TID 0000.0001)     ;
(PID.TID 0000.0001) useCDscheme =  /* CD scheme on/off flag */
(PID.TID 0000.0001)                   F
(PID.TID 0000.0001)     ;
(PID.TID 0000.0001) useEnergyConservingCoriolis= /* Flx-Form Coriolis scheme flag */
(PID.TID 0000.0001)                   F
(PID.TID 0000.0001)     ;
(PID.TID 0000.0001) useJamartWetPoints= /* Coriolis WetPoints method flag */
(PID.TID 0000.0001)                   F
(PID.TID 0000.0001)     ;
(PID.TID 0000.0001) useJamartMomAdv= /* V.I Non-linear terms Jamart flag */
(PID.TID 0000.0001)                   F
(PID.TID 0000.0001)     ;
(PID.TID 0000.0001) useAbsVorticity= /* V.I Works with f+zeta in Coriolis */
(PID.TID 0000.0001)                   T
(PID.TID 0000.0001)     ;
(PID.TID 0000.0001) selectVortScheme= /* V.I Scheme selector for Vorticity-Term */
(PID.TID 0000.0001)                       3
(PID.TID 0000.0001)    = 0 : enstrophy (Shallow-Water Eq.) conserving scheme by Sadourny, JAS 75
(PID.TID 0000.0001)    = 1 : same as 0 with modified hFac
(PID.TID 0000.0001)    = 2 : energy conserving scheme (used by Sadourny in JAS 75 paper)
(PID.TID 0000.0001)    = 3 : energy (general) and enstrophy (2D, nonDiv.) conserving scheme
(PID.TID 0000.0001)          from Sadourny (Burridge & Haseler, ECMWF Rep.4, 1977)
(PID.TID 0000.0001)     ;
(PID.TID 0000.0001) upwindVorticity= /* V.I Upwind bias vorticity flag */
(PID.TID 0000.0001)                   F
(PID.TID 0000.0001)     ;
(PID.TID 0000.0001) highOrderVorticity= /* V.I High order vort. advect. flag */
(PID.TID 0000.0001)                   F
(PID.TID 0000.0001)     ;
(PID.TID 0000.0001) upwindShear= /* V.I Upwind vertical Shear advection flag */
(PID.TID 0000.0001)                   F
(PID.TID 0000.0001)     ;
(PID.TID 0000.0001) selectKEscheme= /* V.I Kinetic Energy scheme selector */
(PID.TID 0000.0001)                       3
(PID.TID 0000.0001)     ;
(PID.TID 0000.0001) momForcing =  /* Momentum forcing on/off flag */
(PID.TID 0000.0001)                   T
(PID.TID 0000.0001)     ;
(PID.TID 0000.0001) momPressureForcing =  /* Momentum pressure term on/off flag */
(PID.TID 0000.0001)                   T
(PID.TID 0000.0001)     ;
(PID.TID 0000.0001) implicitIntGravWave= /* Implicit Internal Gravity Wave flag */
(PID.TID 0000.0001)                   F
(PID.TID 0000.0001)     ;
(PID.TID 0000.0001) staggerTimeStep =    /* Stagger time stepping on/off flag */
(PID.TID 0000.0001)                   T
(PID.TID 0000.0001)     ;
(PID.TID 0000.0001) doResetHFactors = /* reset thickness factors @ each time-step */
(PID.TID 0000.0001)                   F
(PID.TID 0000.0001)     ;
(PID.TID 0000.0001) multiDimAdvection =  /* enable/disable Multi-Dim Advection */
(PID.TID 0000.0001)                   T
(PID.TID 0000.0001)     ;
(PID.TID 0000.0001) useMultiDimAdvec =   /* Multi-Dim Advection is/is-not used */
(PID.TID 0000.0001)                   T
(PID.TID 0000.0001)     ;
(PID.TID 0000.0001) implicitDiffusion = /* Implicit Diffusion on/off flag */
(PID.TID 0000.0001)                   F
(PID.TID 0000.0001)     ;
(PID.TID 0000.0001) tempStepping =  /* Temperature equation on/off flag */
(PID.TID 0000.0001)                   T
(PID.TID 0000.0001)     ;
(PID.TID 0000.0001) tempAdvection = /* Temperature advection on/off flag */
(PID.TID 0000.0001)                   T
(PID.TID 0000.0001)     ;
(PID.TID 0000.0001) tempImplVertAdv = /* Temp. implicit vert. advection on/off */
(PID.TID 0000.0001)                   F
(PID.TID 0000.0001)     ;
(PID.TID 0000.0001) tempForcing  =  /* Temperature forcing on/off flag */
(PID.TID 0000.0001)                   T
(PID.TID 0000.0001)     ;
(PID.TID 0000.0001) addFrictionHeating= /* account for frictional heating */
(PID.TID 0000.0001)                   T
(PID.TID 0000.0001)     ;
(PID.TID 0000.0001) doThetaClimRelax = /* apply SST relaxation on/off flag */
(PID.TID 0000.0001)                   F
(PID.TID 0000.0001)     ;
(PID.TID 0000.0001) tempIsActiveTr = /* Temp. is a dynamically Active Tracer */
(PID.TID 0000.0001)                   T
(PID.TID 0000.0001)     ;
(PID.TID 0000.0001) saltStepping =  /* Salinity equation on/off flag */
(PID.TID 0000.0001)                   T
(PID.TID 0000.0001)     ;
(PID.TID 0000.0001) saltAdvection = /* Salinity advection on/off flag */
(PID.TID 0000.0001)                   T
(PID.TID 0000.0001)     ;
(PID.TID 0000.0001) saltImplVertAdv = /* Sali. implicit vert. advection on/off */
(PID.TID 0000.0001)                   F
(PID.TID 0000.0001)     ;
(PID.TID 0000.0001) saltForcing  =  /* Salinity forcing on/off flag */
(PID.TID 0000.0001)                   T
(PID.TID 0000.0001)     ;
(PID.TID 0000.0001) doSaltClimRelax = /* apply SSS relaxation on/off flag */
(PID.TID 0000.0001)                   F
(PID.TID 0000.0001)     ;
(PID.TID 0000.0001) saltIsActiveTr = /* Salt  is a dynamically Active Tracer */
(PID.TID 0000.0001)                   T
(PID.TID 0000.0001)     ;
(PID.TID 0000.0001)  readBinaryPrec = /* Precision used for reading binary files */
(PID.TID 0000.0001)                      64
(PID.TID 0000.0001)     ;
(PID.TID 0000.0001) writeBinaryPrec = /* Precision used for writing binary files */
(PID.TID 0000.0001)                      64
(PID.TID 0000.0001)     ;
(PID.TID 0000.0001)  globalFiles = /* write "global" (=not per tile) files */
(PID.TID 0000.0001)                   F
(PID.TID 0000.0001)     ;
(PID.TID 0000.0001)  useSingleCpuIO = /* only master MPI process does I/O */
(PID.TID 0000.0001)                   F
(PID.TID 0000.0001)     ;
(PID.TID 0000.0001)  useSingleCpuInput = /* only master process reads input */
(PID.TID 0000.0001)                   F
(PID.TID 0000.0001)     ;
(PID.TID 0000.0001) /* debLev[*]  : level of debug & auxiliary message printing */
(PID.TID 0000.0001) debLevZero =  0 ; /* level of disabled aux. msg printing */
(PID.TID 0000.0001)    debLevA =  1 ; /* level of minimum  aux. msg printing */
(PID.TID 0000.0001)    debLevB =  2 ; /* level of low aux. print (report read-file opening)*/
(PID.TID 0000.0001)    debLevC =  3 ; /* level of moderate debug prt (most pkgs debug msg) */
(PID.TID 0000.0001)    debLevD =  4 ; /* level of enhanced debug prt (add DEBUG_STATS prt) */
(PID.TID 0000.0001)    debLevE =  5 ; /* level of extensive debug printing */
(PID.TID 0000.0001) debugLevel =  /* select debug printing level */
(PID.TID 0000.0001)                       2
(PID.TID 0000.0001)     ;
(PID.TID 0000.0001) //
(PID.TID 0000.0001) // Elliptic solver(s) paramters ( PARM02 in namelist )
(PID.TID 0000.0001) //
(PID.TID 0000.0001) cg2dMaxIters =   /* Upper limit on 2d con. grad iterations  */
(PID.TID 0000.0001)                     200
(PID.TID 0000.0001)     ;
(PID.TID 0000.0001) cg2dChkResFreq =   /* 2d con. grad convergence test frequency */
(PID.TID 0000.0001)                       1
(PID.TID 0000.0001)     ;
(PID.TID 0000.0001) cg2dUseMinResSol= /* use cg2d last-iter(=0) / min-resid.(=1) solution */
(PID.TID 0000.0001)                       0
(PID.TID 0000.0001)     ;
(PID.TID 0000.0001) cg2dTargetResidual =   /* 2d con. grad target residual  */
(PID.TID 0000.0001)                 1.000000000000000E-07
(PID.TID 0000.0001)     ;
(PID.TID 0000.0001) cg2dTargetResWunit =   /* CG2d target residual [W units] */
(PID.TID 0000.0001)                 1.000000000000000E-17
(PID.TID 0000.0001)     ;
(PID.TID 0000.0001) cg2dPreCondFreq =   /* Freq. for updating cg2d preconditioner */
(PID.TID 0000.0001)                       1
(PID.TID 0000.0001)     ;
(PID.TID 0000.0001) useSRCGSolver =  /* use single reduction CG solver(s) */
(PID.TID 0000.0001)                   F
(PID.TID 0000.0001)     ;
(PID.TID 0000.0001) printResidualFreq = /* Freq. for printing CG residual */
(PID.TID 0000.0001)                       0
(PID.TID 0000.0001)     ;
(PID.TID 0000.0001) //
(PID.TID 0000.0001) // Time stepping paramters ( PARM03 in namelist )
(PID.TID 0000.0001) //
(PID.TID 0000.0001) deltaTMom =   /* Momentum equation timestep ( s ) */
(PID.TID 0000.0001)                 3.600000000000000E+02
(PID.TID 0000.0001)     ;
(PID.TID 0000.0001) deltaTFreeSurf = /* FreeSurface equation timestep ( s ) */
(PID.TID 0000.0001)                 3.600000000000000E+02
(PID.TID 0000.0001)     ;
(PID.TID 0000.0001) dTtracerLev =  /* Tracer equation timestep ( s ) */
(PID.TID 0000.0001)    26 @  3.600000000000000E+02              /* K =  1: 26 */
(PID.TID 0000.0001)     ;
(PID.TID 0000.0001) deltaTClock  =   /* Model clock timestep ( s ) */
(PID.TID 0000.0001)                 3.600000000000000E+02
(PID.TID 0000.0001)     ;
(PID.TID 0000.0001) cAdjFreq =   /* Convective adjustment interval ( s ) */
(PID.TID 0000.0001)                 0.000000000000000E+00
(PID.TID 0000.0001)     ;
(PID.TID 0000.0001) momForcingOutAB = /* =1: take Momentum Forcing out of Adams-Bash. stepping */
(PID.TID 0000.0001)                       1
(PID.TID 0000.0001)     ;
(PID.TID 0000.0001) tracForcingOutAB = /* =1: take T,S,pTr Forcing out of Adams-Bash. stepping */
(PID.TID 0000.0001)                       1
(PID.TID 0000.0001)     ;
(PID.TID 0000.0001) momDissip_In_AB = /* put Dissipation Tendency in Adams-Bash. stepping */
(PID.TID 0000.0001)                   T
(PID.TID 0000.0001)     ;
(PID.TID 0000.0001) doAB_onGtGs = /* apply AB on Tendencies (rather than on T,S)*/
(PID.TID 0000.0001)                   T
(PID.TID 0000.0001)     ;
(PID.TID 0000.0001) abEps =   /* Adams-Bashforth-2 stabilizing weight */
(PID.TID 0000.0001)                 1.000000000000000E-01
(PID.TID 0000.0001)     ;
(PID.TID 0000.0001) pickupStrictlyMatch= /* stop if pickup do not strictly match */
(PID.TID 0000.0001)                   T
(PID.TID 0000.0001)     ;
(PID.TID 0000.0001) nIter0   =   /* Run starting timestep number */
(PID.TID 0000.0001)                       0
(PID.TID 0000.0001)     ;
(PID.TID 0000.0001) nTimeSteps = /* Number of timesteps */
(PID.TID 0000.0001)                      40
(PID.TID 0000.0001)     ;
(PID.TID 0000.0001) nEndIter =   /* Run ending timestep number */
(PID.TID 0000.0001)                      40
(PID.TID 0000.0001)     ;
(PID.TID 0000.0001) baseTime =   /* Model base time ( s ) */
(PID.TID 0000.0001)                 0.000000000000000E+00
(PID.TID 0000.0001)     ;
(PID.TID 0000.0001) startTime =  /* Run start time ( s ) */
(PID.TID 0000.0001)                 0.000000000000000E+00
(PID.TID 0000.0001)     ;
(PID.TID 0000.0001) endTime  =   /* Integration ending time ( s ) */
(PID.TID 0000.0001)                 1.440000000000000E+04
(PID.TID 0000.0001)     ;
(PID.TID 0000.0001) pChkPtFreq = /* Permanent restart/pickup file interval ( s ) */
(PID.TID 0000.0001)                 1.555200000000000E+08
(PID.TID 0000.0001)     ;
(PID.TID 0000.0001) chkPtFreq  = /* Rolling restart/pickup file interval ( s ) */
(PID.TID 0000.0001)                 3.110400000000000E+07
(PID.TID 0000.0001)     ;
(PID.TID 0000.0001) pickup_write_mdsio =   /* Model IO flag. */
(PID.TID 0000.0001)                   T
(PID.TID 0000.0001)     ;
(PID.TID 0000.0001) pickup_read_mdsio =   /* Model IO flag. */
(PID.TID 0000.0001)                   T
(PID.TID 0000.0001)     ;
(PID.TID 0000.0001) pickup_write_immed =   /* Model IO flag. */
(PID.TID 0000.0001)                   F
(PID.TID 0000.0001)     ;
(PID.TID 0000.0001) writePickupAtEnd =   /* Model IO flag. */
(PID.TID 0000.0001)                   T
(PID.TID 0000.0001)     ;
(PID.TID 0000.0001) dumpFreq =   /* Model state write out interval ( s ). */
(PID.TID 0000.0001)                 3.110400000000000E+07
(PID.TID 0000.0001)     ;
(PID.TID 0000.0001) dumpInitAndLast= /* write out Initial & Last iter. model state */
(PID.TID 0000.0001)                   T
(PID.TID 0000.0001)     ;
(PID.TID 0000.0001) snapshot_mdsio =   /* Model IO flag. */
(PID.TID 0000.0001)                   T
(PID.TID 0000.0001)     ;
(PID.TID 0000.0001) monitorFreq =   /* Monitor output interval ( s ). */
(PID.TID 0000.0001)                 1.000000000000000E+00
(PID.TID 0000.0001)     ;
(PID.TID 0000.0001) monitorSelect = /* select group of variables to monitor */
(PID.TID 0000.0001)                       2
(PID.TID 0000.0001)     ;
(PID.TID 0000.0001) monitor_stdio =   /* Model IO flag. */
(PID.TID 0000.0001)                   T
(PID.TID 0000.0001)     ;
(PID.TID 0000.0001) externForcingPeriod =   /* forcing period (s) */
(PID.TID 0000.0001)                 0.000000000000000E+00
(PID.TID 0000.0001)     ;
(PID.TID 0000.0001) externForcingCycle =   /* period of the cyle (s). */
(PID.TID 0000.0001)                 0.000000000000000E+00
(PID.TID 0000.0001)     ;
(PID.TID 0000.0001) tauThetaClimRelax =   /* relaxation time scale (s) */
(PID.TID 0000.0001)                 0.000000000000000E+00
(PID.TID 0000.0001)     ;
(PID.TID 0000.0001) tauSaltClimRelax =   /* relaxation time scale (s) */
(PID.TID 0000.0001)                 0.000000000000000E+00
(PID.TID 0000.0001)     ;
(PID.TID 0000.0001) latBandClimRelax =   /* max. Lat. where relaxation */
(PID.TID 0000.0001)                 1.800000000000000E+02
(PID.TID 0000.0001)     ;
(PID.TID 0000.0001) //
(PID.TID 0000.0001) // Gridding paramters ( PARM04 in namelist )
(PID.TID 0000.0001) //
(PID.TID 0000.0001) usingCartesianGrid = /* Cartesian coordinates flag ( True/False ) */
(PID.TID 0000.0001)                   F
(PID.TID 0000.0001)     ;
(PID.TID 0000.0001) usingCylindricalGrid = /* Cylindrical coordinates flag ( True/False ) */
(PID.TID 0000.0001)                   F
(PID.TID 0000.0001)     ;
(PID.TID 0000.0001) usingSphericalPolarGrid = /* Spherical coordinates flag ( True/False ) */
(PID.TID 0000.0001)                   F
(PID.TID 0000.0001)     ;
(PID.TID 0000.0001) usingCurvilinearGrid = /* Curvilinear coordinates flag ( True/False ) */
(PID.TID 0000.0001)                   T
(PID.TID 0000.0001)     ;
(PID.TID 0000.0001) selectSigmaCoord = /* Hybrid-Sigma Vert. Coordinate option */
(PID.TID 0000.0001)                       0
(PID.TID 0000.0001)     ;
(PID.TID 0000.0001) Ro_SeaLevel = /* r(1) ( units of r == Pa ) */
(PID.TID 0000.0001)                 1.000000000000000E+05
(PID.TID 0000.0001)     ;
(PID.TID 0000.0001) rSigmaBnd = /* r/sigma transition ( units of r == Pa ) */
(PID.TID 0000.0001)                 1.234567000000000E+05
(PID.TID 0000.0001)     ;
(PID.TID 0000.0001) rkSign =   /* index orientation relative to vertical coordinate */
(PID.TID 0000.0001)                -1.000000000000000E+00
(PID.TID 0000.0001)     ;
(PID.TID 0000.0001) gravitySign = /* gravity orientation relative to vertical coordinate */
(PID.TID 0000.0001)                 1.000000000000000E+00
(PID.TID 0000.0001)     ;
(PID.TID 0000.0001) mass2rUnit = /* convert mass per unit area [kg/m2] to r-units [Pa] */
(PID.TID 0000.0001)                 9.800000000000001E+00
(PID.TID 0000.0001)     ;
(PID.TID 0000.0001) rUnit2mass = /* convert r-units [Pa] to mass per unit area [kg/m2] */
(PID.TID 0000.0001)                 1.020408163265306E-01
(PID.TID 0000.0001)     ;
(PID.TID 0000.0001) drC =   /* C spacing ( units of r ) */
(PID.TID 0000.0001)                 7.500000000000000E+02,      /* K =  1 */
(PID.TID 0000.0001)                 1.811000000000000E+03,      /* K =  2 */
(PID.TID 0000.0001)                 2.561000000000000E+03,      /* K =  3 */
(PID.TID 0000.0001)                 3.621000000000000E+03,      /* K =  4 */
(PID.TID 0000.0001)                 5.121000000000000E+03,      /* K =  5 */
(PID.TID 0000.0001)                 6.900000000000000E+03,      /* K =  6 */
(PID.TID 0000.0001)                 8.450000000000000E+03,      /* K =  7 */
(PID.TID 0000.0001)                 9.250000000000000E+03,      /* K =  8 */
(PID.TID 0000.0001)                 9.340000000000000E+03,      /* K =  9 */
(PID.TID 0000.0001)                 8.840000000000000E+03,      /* K = 10 */
(PID.TID 0000.0001)                 7.690000000000000E+03,      /* K = 11 */
(PID.TID 0000.0001)                 6.390000000000000E+03,      /* K = 12 */
(PID.TID 0000.0001)                 5.310000000000000E+03,      /* K = 13 */
(PID.TID 0000.0001)                 4.412000000000000E+03,      /* K = 14 */
(PID.TID 0000.0001)                 3.666000000000000E+03,      /* K = 15 */
(PID.TID 0000.0001)                 3.047000000000000E+03,      /* K = 16 */
(PID.TID 0000.0001)                 2.532000000000000E+03,      /* K = 17 */
(PID.TID 0000.0001)                 2.104000000000000E+03,      /* K = 18 */
(PID.TID 0000.0001)                 1.748000000000000E+03,      /* K = 19 */
(PID.TID 0000.0001)                 1.452000000000000E+03,      /* K = 20 */
(PID.TID 0000.0001)                 1.207000000000000E+03,      /* K = 21 */
(PID.TID 0000.0001)                 1.003000000000000E+03,      /* K = 22 */
(PID.TID 0000.0001)                 8.330000000000000E+02,      /* K = 23 */
(PID.TID 0000.0001)                 6.920000000000000E+02,      /* K = 24 */
(PID.TID 0000.0001)                 5.750000000000000E+02,      /* K = 25 */
(PID.TID 0000.0001)                 4.780000000000000E+02,      /* K = 26 */
(PID.TID 0000.0001)                 2.170000000000000E+02       /* K = 27 */
(PID.TID 0000.0001)     ;
(PID.TID 0000.0001) drF =   /* W spacing ( units of r ) */
(PID.TID 0000.0001)                 1.500000000000000E+03,      /* K =  1 */
(PID.TID 0000.0001)                 2.122000000000000E+03,      /* K =  2 */
(PID.TID 0000.0001)                 3.000000000000000E+03,      /* K =  3 */
(PID.TID 0000.0001)                 4.242000000000000E+03,      /* K =  4 */
(PID.TID 0000.0001)                 6.000000000000000E+03,      /* K =  5 */
(PID.TID 0000.0001)                 7.800000000000000E+03,      /* K =  6 */
(PID.TID 0000.0001)                 9.100000000000000E+03,      /* K =  7 */
(PID.TID 0000.0001)                 9.400000000000000E+03,      /* K =  8 */
(PID.TID 0000.0001)                 9.280000000000000E+03,      /* K =  9 */
(PID.TID 0000.0001)                 8.400000000000000E+03,      /* K = 10 */
(PID.TID 0000.0001)                 6.980000000000000E+03,      /* K = 11 */
(PID.TID 0000.0001)                 5.800000000000000E+03,      /* K = 12 */
(PID.TID 0000.0001)                 4.820000000000000E+03,      /* K = 13 */
(PID.TID 0000.0001)                 4.004000000000000E+03,      /* K = 14 */
(PID.TID 0000.0001)                 3.328000000000000E+03,      /* K = 15 */
(PID.TID 0000.0001)                 2.766000000000000E+03,      /* K = 16 */
(PID.TID 0000.0001)                 2.298000000000000E+03,      /* K = 17 */
(PID.TID 0000.0001)                 1.910000000000000E+03,      /* K = 18 */
(PID.TID 0000.0001)                 1.586000000000000E+03,      /* K = 19 */
(PID.TID 0000.0001)                 1.318000000000000E+03,      /* K = 20 */
(PID.TID 0000.0001)                 1.096000000000000E+03,      /* K = 21 */
(PID.TID 0000.0001)                 9.100000000000000E+02,      /* K = 22 */
(PID.TID 0000.0001)                 7.560000000000000E+02,      /* K = 23 */
(PID.TID 0000.0001)                 6.280000000000000E+02,      /* K = 24 */
(PID.TID 0000.0001)                 5.220000000000000E+02,      /* K = 25 */
(PID.TID 0000.0001)                 4.340000000000000E+02       /* K = 26 */
(PID.TID 0000.0001)     ;
(PID.TID 0000.0001) radius_fromHorizGrid = /* sphere Radius of input horiz. grid */
(PID.TID 0000.0001)                 6.370000000000000E+06
(PID.TID 0000.0001)     ;
(PID.TID 0000.0001) rSphere =  /* Radius ( ignored - cartesian, m - spherical ) */
(PID.TID 0000.0001)                 6.370000000000000E+06
(PID.TID 0000.0001)     ;
(PID.TID 0000.0001) deepAtmosphere = /* Deep/Shallow Atmosphere flag (True/False) */
(PID.TID 0000.0001)                   F
(PID.TID 0000.0001)     ;
(PID.TID 0000.0001) xC =  /* xC(:,1,:,1) : P-point X coord ( deg. or m if cartesian) */
(PID.TID 0000.0001)                -4.439521994760536E+01,      /* I =  1 */
(PID.TID 0000.0001)                -4.295641272275883E+01,      /* I =  2 */
(PID.TID 0000.0001)                -4.122055553388957E+01,      /* I =  3 */
(PID.TID 0000.0001)      . . .
(PID.TID 0000.0001)                 8.070819219728060E+01,      /* I = 46 */
(PID.TID 0000.0001)                 8.439652466417766E+01,      /* I = 47 */
(PID.TID 0000.0001)                 8.812739148696656E+01,      /* I = 48 */
(PID.TID 0000.0001)                 9.187260851303344E+01,      /* I = 49 */
(PID.TID 0000.0001)                 9.560347533582234E+01,      /* I = 50 */
(PID.TID 0000.0001)                 9.929180780271940E+01,      /* I = 51 */
(PID.TID 0000.0001)      . . .
(PID.TID 0000.0001)                 1.321863035748696E+02,      /* I = 94 */
(PID.TID 0000.0001)                 1.337919453120370E+02,      /* I = 95 */
(PID.TID 0000.0001)                 1.350000000000000E+02,      /* I = 96 */
(PID.TID 0000.0001)                 1.356047800523947E+02,      /* I = 97 */
(PID.TID 0000.0001)                 1.358367907661329E+02,      /* I = 98 */
(PID.TID 0000.0001)                 1.359720382181193E+02,      /* I = 99 */
(PID.TID 0000.0001)      . . .
(PID.TID 0000.0001)                -1.336511021209287E+02,      /* I =142 */
(PID.TID 0000.0001)                -1.336469399409420E+02,      /* I =143 */
(PID.TID 0000.0001)                -1.336449032499283E+02,      /* I =144 */
(PID.TID 0000.0001)                -1.336449032499283E+02,      /* I =145 */
(PID.TID 0000.0001)                -1.336469399409420E+02,      /* I =146 */
(PID.TID 0000.0001)                -1.336511021209287E+02,      /* I =147 */
(PID.TID 0000.0001)      . . .
(PID.TID 0000.0001)                 1.378136964251304E+02,      /* I =190 */
(PID.TID 0000.0001)                 1.362080546879630E+02,      /* I =191 */
(PID.TID 0000.0001)                 1.350000000000000E+02       /* I =192 */
(PID.TID 0000.0001)     ;
(PID.TID 0000.0001) yC =  /* yC(1,:,1,:) : P-point Y coord ( deg. or m if cartesian) */
(PID.TID 0000.0001)                -3.497677942598243E+01,      /* J =  1 */
(PID.TID 0000.0001)                -3.374005967394886E+01,      /* J =  2 */
(PID.TID 0000.0001)                -3.220655175667454E+01,      /* J =  3 */
(PID.TID 0000.0001)                -3.045756348838641E+01,      /* J =  4 */
(PID.TID 0000.0001)                -2.853728129852918E+01,      /* J =  5 */
(PID.TID 0000.0001)                -2.647426640173173E+01,      /* J =  6 */
(PID.TID 0000.0001)                -2.428936657094636E+01,      /* J =  7 */
(PID.TID 0000.0001)                -2.199915808312262E+01,      /* J =  8 */
(PID.TID 0000.0001)                -1.961768597440146E+01,      /* J =  9 */
(PID.TID 0000.0001)                -1.715743888281371E+01,      /* J = 10 */
(PID.TID 0000.0001)                -1.462993396899330E+01,      /* J = 11 */
(PID.TID 0000.0001)                -1.204608340464756E+01,      /* J = 12 */
(PID.TID 0000.0001)                -9.416429130284818E+00,      /* J = 13 */
(PID.TID 0000.0001)                -6.751293662992216E+00,      /* J = 14 */
(PID.TID 0000.0001)                -4.060875511835959E+00,      /* J = 15 */
(PID.TID 0000.0001)                -1.355307764409121E+00,      /* J = 16 */
(PID.TID 0000.0001)                 1.355307764409121E+00,      /* J = 17 */
(PID.TID 0000.0001)                 4.060875511835959E+00,      /* J = 18 */
(PID.TID 0000.0001)                 6.751293662992216E+00,      /* J = 19 */
(PID.TID 0000.0001)                 9.416429130284818E+00,      /* J = 20 */
(PID.TID 0000.0001)                 1.204608340464756E+01,      /* J = 21 */
(PID.TID 0000.0001)                 1.462993396899330E+01,      /* J = 22 */
(PID.TID 0000.0001)                 1.715743888281371E+01,      /* J = 23 */
(PID.TID 0000.0001)                 1.961768597440146E+01,      /* J = 24 */
(PID.TID 0000.0001)                 2.199915808312262E+01,      /* J = 25 */
(PID.TID 0000.0001)                 2.428936657094636E+01,      /* J = 26 */
(PID.TID 0000.0001)                 2.647426640173173E+01,      /* J = 27 */
(PID.TID 0000.0001)                 2.853728129852918E+01,      /* J = 28 */
(PID.TID 0000.0001)                 3.045756348838641E+01,      /* J = 29 */
(PID.TID 0000.0001)                 3.220655175667454E+01,      /* J = 30 */
(PID.TID 0000.0001)                 3.374005967394886E+01,      /* J = 31 */
(PID.TID 0000.0001)                 3.497677942598243E+01       /* J = 32 */
(PID.TID 0000.0001)     ;
(PID.TID 0000.0001) rcoord = /* P-point R coordinate (  units of r ) */
(PID.TID 0000.0001)                 9.925000000000000E+04,      /* K =  1 */
(PID.TID 0000.0001)                 9.743900000000000E+04,      /* K =  2 */
(PID.TID 0000.0001)                 9.487800000000000E+04,      /* K =  3 */
(PID.TID 0000.0001)                 9.125700000000000E+04,      /* K =  4 */
(PID.TID 0000.0001)                 8.613600000000000E+04,      /* K =  5 */
(PID.TID 0000.0001)                 7.923600000000000E+04,      /* K =  6 */
(PID.TID 0000.0001)                 7.078600000000000E+04,      /* K =  7 */
(PID.TID 0000.0001)                 6.153600000000000E+04,      /* K =  8 */
(PID.TID 0000.0001)                 5.219600000000000E+04,      /* K =  9 */
(PID.TID 0000.0001)                 4.335600000000000E+04,      /* K = 10 */
(PID.TID 0000.0001)                 3.566600000000000E+04,      /* K = 11 */
(PID.TID 0000.0001)                 2.927600000000000E+04,      /* K = 12 */
(PID.TID 0000.0001)                 2.396600000000000E+04,      /* K = 13 */
(PID.TID 0000.0001)                 1.955400000000000E+04,      /* K = 14 */
(PID.TID 0000.0001)                 1.588800000000000E+04,      /* K = 15 */
(PID.TID 0000.0001)                 1.284100000000000E+04,      /* K = 16 */
(PID.TID 0000.0001)                 1.030900000000000E+04,      /* K = 17 */
(PID.TID 0000.0001)                 8.205000000000000E+03,      /* K = 18 */
(PID.TID 0000.0001)                 6.457000000000000E+03,      /* K = 19 */
(PID.TID 0000.0001)                 5.005000000000000E+03,      /* K = 20 */
(PID.TID 0000.0001)                 3.798000000000000E+03,      /* K = 21 */
(PID.TID 0000.0001)                 2.795000000000000E+03,      /* K = 22 */
(PID.TID 0000.0001)                 1.962000000000000E+03,      /* K = 23 */
(PID.TID 0000.0001)                 1.270000000000000E+03,      /* K = 24 */
(PID.TID 0000.0001)                 6.950000000000000E+02,      /* K = 25 */
(PID.TID 0000.0001)                 2.170000000000000E+02       /* K = 26 */
(PID.TID 0000.0001)     ;
(PID.TID 0000.0001) rF =   /* W-Interf. R coordinate (  units of r ) */
(PID.TID 0000.0001)                 1.000000000000000E+05,      /* K =  1 */
(PID.TID 0000.0001)                 9.850000000000000E+04,      /* K =  2 */
(PID.TID 0000.0001)                 9.637800000000000E+04,      /* K =  3 */
(PID.TID 0000.0001)                 9.337800000000000E+04,      /* K =  4 */
(PID.TID 0000.0001)                 8.913600000000000E+04,      /* K =  5 */
(PID.TID 0000.0001)                 8.313600000000000E+04,      /* K =  6 */
(PID.TID 0000.0001)                 7.533600000000000E+04,      /* K =  7 */
(PID.TID 0000.0001)                 6.623600000000000E+04,      /* K =  8 */
(PID.TID 0000.0001)                 5.683600000000000E+04,      /* K =  9 */
(PID.TID 0000.0001)                 4.755600000000000E+04,      /* K = 10 */
(PID.TID 0000.0001)                 3.915600000000000E+04,      /* K = 11 */
(PID.TID 0000.0001)                 3.217600000000000E+04,      /* K = 12 */
(PID.TID 0000.0001)                 2.637600000000000E+04,      /* K = 13 */
(PID.TID 0000.0001)                 2.155600000000000E+04,      /* K = 14 */
(PID.TID 0000.0001)                 1.755200000000000E+04,      /* K = 15 */
(PID.TID 0000.0001)                 1.422400000000000E+04,      /* K = 16 */
(PID.TID 0000.0001)                 1.145800000000000E+04,      /* K = 17 */
(PID.TID 0000.0001)                 9.160000000000000E+03,      /* K = 18 */
(PID.TID 0000.0001)                 7.250000000000000E+03,      /* K = 19 */
(PID.TID 0000.0001)                 5.664000000000000E+03,      /* K = 20 */
(PID.TID 0000.0001)                 4.346000000000000E+03,      /* K = 21 */
(PID.TID 0000.0001)                 3.250000000000000E+03,      /* K = 22 */
(PID.TID 0000.0001)                 2.340000000000000E+03,      /* K = 23 */
(PID.TID 0000.0001)                 1.584000000000000E+03,      /* K = 24 */
(PID.TID 0000.0001)                 9.560000000000000E+02,      /* K = 25 */
(PID.TID 0000.0001)                 4.340000000000000E+02,      /* K = 26 */
(PID.TID 0000.0001)                 0.000000000000000E+00       /* K = 27 */
(PID.TID 0000.0001)     ;
(PID.TID 0000.0001) deepFacC = /* deep-model grid factor @ cell-Center (-) */
(PID.TID 0000.0001)    26 @  1.000000000000000E+00              /* K =  1: 26 */
(PID.TID 0000.0001)     ;
(PID.TID 0000.0001) deepFacF = /* deep-model grid factor @ W-Interface (-) */
(PID.TID 0000.0001)    27 @  1.000000000000000E+00              /* K =  1: 27 */
(PID.TID 0000.0001)     ;
(PID.TID 0000.0001) rVel2wUnit = /* convert units: rVel -> wSpeed (=1 if z-coord)*/
(PID.TID 0000.0001)                 8.643418775510203E-02,      /* K =  1 */
(PID.TID 0000.0001)                 8.738714281594749E-02,      /* K =  2 */
(PID.TID 0000.0001)                 8.880228539413697E-02,      /* K =  3 */
(PID.TID 0000.0001)                 9.089242929019774E-02,      /* K =  4 */
(PID.TID 0000.0001)                 9.405693947589525E-02,      /* K =  5 */
(PID.TID 0000.0001)                 9.902423118195600E-02,      /* K =  6 */
(PID.TID 0000.0001)                 1.064768002018922E-01,      /* K =  7 */
(PID.TID 0000.0001)                 1.170463961122242E-01,      /* K =  8 */
(PID.TID 0000.0001)                 1.310066026003325E-01,      /* K =  9 */
(PID.TID 0000.0001)                 1.493938920168942E-01,      /* K = 10 */
(PID.TID 0000.0001)                 1.725289602831169E-01,      /* K = 11 */
(PID.TID 0000.0001)                 2.002474459407474E-01,      /* K = 12 */
(PID.TID 0000.0001)                 2.343614310665001E-01,      /* K = 13 */
(PID.TID 0000.0001)                 2.776669889631084E-01,      /* K = 14 */
(PID.TID 0000.0001)                 3.350138715309565E-01,      /* K = 15 */
(PID.TID 0000.0001)                 4.115302688812186E-01,      /* K = 16 */
(PID.TID 0000.0001)                 5.108941627115936E-01,      /* K = 17 */
(PID.TID 0000.0001)                 6.391247399573892E-01,      /* K = 18 */
(PID.TID 0000.0001)                 8.075182125562436E-01,      /* K = 19 */
(PID.TID 0000.0001)                 1.033823213211920E+00,      /* K = 20 */
(PID.TID 0000.0001)                 1.347773276112891E+00,      /* K = 21 */
(PID.TID 0000.0001)                 1.802919824777024E+00,      /* K = 22 */
(PID.TID 0000.0001)                 2.505981061091403E+00,      /* K = 23 */
(PID.TID 0000.0001)                 3.708894241534945E+00,      /* K = 24 */
(PID.TID 0000.0001)                 6.181002019845741E+00,      /* K = 25 */
(PID.TID 0000.0001)                 1.412649152982495E+01,      /* K = 26 */
(PID.TID 0000.0001)                 1.000000000000000E+00       /* K = 27 */
(PID.TID 0000.0001)     ;
(PID.TID 0000.0001) wUnit2rVel = /* convert units: wSpeed -> rVel (=1 if z-coord)*/
(PID.TID 0000.0001)                 1.156949612152712E+01,      /* K =  1 */
(PID.TID 0000.0001)                 1.144333099556961E+01,      /* K =  2 */
(PID.TID 0000.0001)                 1.126097144416537E+01,      /* K =  3 */
(PID.TID 0000.0001)                 1.100201642545211E+01,      /* K =  4 */
(PID.TID 0000.0001)                 1.063185774034545E+01,      /* K =  5 */
(PID.TID 0000.0001)                 1.009853838867489E+01,      /* K =  6 */
(PID.TID 0000.0001)                 9.391717238909184E+00,      /* K =  7 */
(PID.TID 0000.0001)                 8.543620591625897E+00,      /* K =  8 */
(PID.TID 0000.0001)                 7.633203061152140E+00,      /* K =  9 */
(PID.TID 0000.0001)                 6.693714090311771E+00,      /* K = 10 */
(PID.TID 0000.0001)                 5.796128362212453E+00,      /* K = 11 */
(PID.TID 0000.0001)                 4.993821495710346E+00,      /* K = 12 */
(PID.TID 0000.0001)                 4.266913695864273E+00,      /* K = 13 */
(PID.TID 0000.0001)                 3.601436395929884E+00,      /* K = 14 */
(PID.TID 0000.0001)                 2.984951027341554E+00,      /* K = 15 */
(PID.TID 0000.0001)                 2.429954916119751E+00,      /* K = 16 */
(PID.TID 0000.0001)                 1.957352565338495E+00,      /* K = 17 */
(PID.TID 0000.0001)                 1.564639791704309E+00,      /* K = 18 */
(PID.TID 0000.0001)                 1.238362162550421E+00,      /* K = 19 */
(PID.TID 0000.0001)                 9.672833683944502E-01,      /* K = 20 */
(PID.TID 0000.0001)                 7.419645557033876E-01,      /* K = 21 */
(PID.TID 0000.0001)                 5.546558345286792E-01,      /* K = 22 */
(PID.TID 0000.0001)                 3.990453142389196E-01,      /* K = 23 */
(PID.TID 0000.0001)                 2.696221393431119E-01,      /* K = 24 */
(PID.TID 0000.0001)                 1.617860658820747E-01,      /* K = 25 */
(PID.TID 0000.0001)                 7.078898521184275E-02,      /* K = 26 */
(PID.TID 0000.0001)                 1.000000000000000E+00       /* K = 27 */
(PID.TID 0000.0001)     ;
(PID.TID 0000.0001) dBdrRef = /* Vertical grad. of reference buoyancy [(m/s/r)^2] */
(PID.TID 0000.0001)                 0.000000000000000E+00,      /* K =  1 */
(PID.TID 0000.0001)                 1.604020822972663E-07,      /* K =  2 */
(PID.TID 0000.0001)                 2.305314669656972E-07,      /* K =  3 */
(PID.TID 0000.0001)                 1.669031556286163E-07,      /* K =  4 */
(PID.TID 0000.0001)                 2.443043384715506E-07,      /* K =  5 */
(PID.TID 0000.0001)                 2.860066576999341E-07,      /* K =  6 */
(PID.TID 0000.0001)                 2.921875837384485E-07,      /* K =  7 */
(PID.TID 0000.0001)                 3.755074484194814E-07,      /* K =  8 */
(PID.TID 0000.0001)                 5.066322497832424E-07,      /* K =  9 */
(PID.TID 0000.0001)                 7.166887707647536E-07,      /* K = 10 */
(PID.TID 0000.0001)                 1.306741577704211E-06,      /* K = 11 */
(PID.TID 0000.0001)                 3.518055907999274E-06,      /* K = 12 */
(PID.TID 0000.0001)                 8.225060034419378E-06,      /* K = 13 */
(PID.TID 0000.0001)                 1.937860091746120E-05,      /* K = 14 */
(PID.TID 0000.0001)                 4.456361509018920E-05,      /* K = 15 */
(PID.TID 0000.0001)                 8.004656631735151E-05,      /* K = 16 */
(PID.TID 0000.0001)                 1.235417107379588E-04,      /* K = 17 */
(PID.TID 0000.0001)                 1.931534961382523E-04,      /* K = 18 */
(PID.TID 0000.0001)                 3.077255424266486E-04,      /* K = 19 */
(PID.TID 0000.0001)                 5.060735888621455E-04,      /* K = 20 */
(PID.TID 0000.0001)                 8.577447781720473E-04,      /* K = 21 */
(PID.TID 0000.0001)                 1.533315559624654E-03,      /* K = 22 */
(PID.TID 0000.0001)                 2.960876155175189E-03,      /* K = 23 */
(PID.TID 0000.0001)                 6.490610232038748E-03,      /* K = 24 */
(PID.TID 0000.0001)                 1.807701670627409E-02,      /* K = 25 */
(PID.TID 0000.0001)                 9.817506062475811E-02       /* K = 26 */
(PID.TID 0000.0001)     ;
(PID.TID 0000.0001) rotateGrid = /* use rotated grid ( True/False ) */
(PID.TID 0000.0001)                   F
(PID.TID 0000.0001)     ;
(PID.TID 0000.0001) phiEuler = /* Euler angle, rotation about original z-coordinate [rad] */
(PID.TID 0000.0001)                 0.000000000000000E+00
(PID.TID 0000.0001)     ;
(PID.TID 0000.0001) thetaEuler = /* Euler angle, rotation about new x-coordinate [rad] */
(PID.TID 0000.0001)                 0.000000000000000E+00
(PID.TID 0000.0001)     ;
(PID.TID 0000.0001) psiEuler = /* Euler angle, rotation about new z-coordinate [rad] */
(PID.TID 0000.0001)                 0.000000000000000E+00
(PID.TID 0000.0001)     ;
(PID.TID 0000.0001) dxF =  /* dxF(:,1,:,1) ( units: m ) */
(PID.TID 0000.0001)                 1.202082051331828E+05,      /* I =  1 */
(PID.TID 0000.0001)                 1.563594089971120E+05,      /* I =  2 */
(PID.TID 0000.0001)                 1.835530058121492E+05,      /* I =  3 */
(PID.TID 0000.0001)      . . .
(PID.TID 0000.0001)                 2.978501920522794E+05,      /* I = 46 */
(PID.TID 0000.0001)                 3.000967749619962E+05,      /* I = 47 */
(PID.TID 0000.0001)                 3.012190981969055E+05,      /* I = 48 */
(PID.TID 0000.0001)                 3.012190981969055E+05,      /* I = 49 */
(PID.TID 0000.0001)                 3.000967749619962E+05,      /* I = 50 */
(PID.TID 0000.0001)                 2.978501920522794E+05,      /* I = 51 */
(PID.TID 0000.0001)      . . .
(PID.TID 0000.0001)                 1.835530058121492E+05,      /* I = 94 */
(PID.TID 0000.0001)                 1.563594089971120E+05,      /* I = 95 */
(PID.TID 0000.0001)                 1.202082051331828E+05,      /* I = 96 */
(PID.TID 0000.0001)                 1.202082051331828E+05,      /* I = 97 */
(PID.TID 0000.0001)                 1.563594089971120E+05,      /* I = 98 */
(PID.TID 0000.0001)                 1.835530058121492E+05,      /* I = 99 */
(PID.TID 0000.0001)      . . .
(PID.TID 0000.0001)                 2.978501920522794E+05,      /* I =142 */
(PID.TID 0000.0001)                 3.000967749619962E+05,      /* I =143 */
(PID.TID 0000.0001)                 3.012190981969055E+05,      /* I =144 */
(PID.TID 0000.0001)                 3.012190981969055E+05,      /* I =145 */
(PID.TID 0000.0001)                 3.000967749619962E+05,      /* I =146 */
(PID.TID 0000.0001)                 2.978501920522794E+05,      /* I =147 */
(PID.TID 0000.0001)      . . .
(PID.TID 0000.0001)                 1.835530058121492E+05,      /* I =190 */
(PID.TID 0000.0001)                 1.563594089971120E+05,      /* I =191 */
(PID.TID 0000.0001)                 1.202082051331828E+05       /* I =192 */
(PID.TID 0000.0001)     ;
(PID.TID 0000.0001) dxF =  /* dxF(1,:,1,:) ( units: m ) */
(PID.TID 0000.0001)                 1.202082051331828E+05,      /* J =  1 */
(PID.TID 0000.0001)                 1.572908084538706E+05,      /* J =  2 */
(PID.TID 0000.0001)                 1.840412227747703E+05,      /* J =  3 */
(PID.TID 0000.0001)                 2.048868197919576E+05,      /* J =  4 */
(PID.TID 0000.0001)                 2.220405216043041E+05,      /* J =  5 */
(PID.TID 0000.0001)                 2.365892017348392E+05,      /* J =  6 */
(PID.TID 0000.0001)                 2.491250781852558E+05,      /* J =  7 */
(PID.TID 0000.0001)                 2.599949918261881E+05,      /* J =  8 */
(PID.TID 0000.0001)                 2.694110134598581E+05,      /* J =  9 */
(PID.TID 0000.0001)                 2.775055554645015E+05,      /* J = 10 */
(PID.TID 0000.0001)                 2.843615645344775E+05,      /* J = 11 */
(PID.TID 0000.0001)                 2.900303768613599E+05,      /* J = 12 */
(PID.TID 0000.0001)                 2.945429307892709E+05,      /* J = 13 */
(PID.TID 0000.0001)                 2.979171143158405E+05,      /* J = 14 */
(PID.TID 0000.0001)                 3.001626787528886E+05,      /* J = 15 */
(PID.TID 0000.0001)     2 @  3.012844832048790E+05,             /* J = 16: 17 */
(PID.TID 0000.0001)                 3.001626787528886E+05,      /* J = 18 */
(PID.TID 0000.0001)                 2.979171143158405E+05,      /* J = 19 */
(PID.TID 0000.0001)                 2.945429307892709E+05,      /* J = 20 */
(PID.TID 0000.0001)                 2.900303768613599E+05,      /* J = 21 */
(PID.TID 0000.0001)                 2.843615645344775E+05,      /* J = 22 */
(PID.TID 0000.0001)                 2.775055554645015E+05,      /* J = 23 */
(PID.TID 0000.0001)                 2.694110134598581E+05,      /* J = 24 */
(PID.TID 0000.0001)                 2.599949918261881E+05,      /* J = 25 */
(PID.TID 0000.0001)                 2.491250781852558E+05,      /* J = 26 */
(PID.TID 0000.0001)                 2.365892017348392E+05,      /* J = 27 */
(PID.TID 0000.0001)                 2.220405216043041E+05,      /* J = 28 */
(PID.TID 0000.0001)                 2.048868197919576E+05,      /* J = 29 */
(PID.TID 0000.0001)                 1.840412227747703E+05,      /* J = 30 */
(PID.TID 0000.0001)                 1.572908084538706E+05,      /* J = 31 */
(PID.TID 0000.0001)                 1.202082051331828E+05       /* J = 32 */
(PID.TID 0000.0001)     ;
(PID.TID 0000.0001) dyF =  /* dyF(:,1,:,1) ( units: m ) */
(PID.TID 0000.0001)                 1.202082051331828E+05,      /* I =  1 */
(PID.TID 0000.0001)                 1.572908084538706E+05,      /* I =  2 */
(PID.TID 0000.0001)                 1.840412227747703E+05,      /* I =  3 */
(PID.TID 0000.0001)      . . .
(PID.TID 0000.0001)                 2.979171143158405E+05,      /* I = 46 */
(PID.TID 0000.0001)                 3.001626787528886E+05,      /* I = 47 */
(PID.TID 0000.0001)                 3.012844832048790E+05,      /* I = 48 */
(PID.TID 0000.0001)                 3.012844832048790E+05,      /* I = 49 */
(PID.TID 0000.0001)                 3.001626787528886E+05,      /* I = 50 */
(PID.TID 0000.0001)                 2.979171143158405E+05,      /* I = 51 */
(PID.TID 0000.0001)      . . .
(PID.TID 0000.0001)                 1.840412227747703E+05,      /* I = 94 */
(PID.TID 0000.0001)                 1.572908084538706E+05,      /* I = 95 */
(PID.TID 0000.0001)                 1.202082051331828E+05,      /* I = 96 */
(PID.TID 0000.0001)                 1.202082051331828E+05,      /* I = 97 */
(PID.TID 0000.0001)                 1.572908084538706E+05,      /* I = 98 */
(PID.TID 0000.0001)                 1.840412227747703E+05,      /* I = 99 */
(PID.TID 0000.0001)      . . .
(PID.TID 0000.0001)                 2.979171143158405E+05,      /* I =142 */
(PID.TID 0000.0001)                 3.001626787528886E+05,      /* I =143 */
(PID.TID 0000.0001)                 3.012844832048790E+05,      /* I =144 */
(PID.TID 0000.0001)                 3.012844832048790E+05,      /* I =145 */
(PID.TID 0000.0001)                 3.001626787528886E+05,      /* I =146 */
(PID.TID 0000.0001)                 2.979171143158405E+05,      /* I =147 */
(PID.TID 0000.0001)      . . .
(PID.TID 0000.0001)                 1.840412227747703E+05,      /* I =190 */
(PID.TID 0000.0001)                 1.572908084538706E+05,      /* I =191 */
(PID.TID 0000.0001)                 1.202082051331828E+05       /* I =192 */
(PID.TID 0000.0001)     ;
(PID.TID 0000.0001) dyF =  /* dyF(1,:,1,:) ( units: m ) */
(PID.TID 0000.0001)                 1.202082051331828E+05,      /* J =  1 */
(PID.TID 0000.0001)                 1.563594089971120E+05,      /* J =  2 */
(PID.TID 0000.0001)                 1.835530058121492E+05,      /* J =  3 */
(PID.TID 0000.0001)                 2.045883481718707E+05,      /* J =  4 */
(PID.TID 0000.0001)                 2.218350349844185E+05,      /* J =  5 */
(PID.TID 0000.0001)                 2.364352994647058E+05,      /* J =  6 */
(PID.TID 0000.0001)                 2.490022710862746E+05,      /* J =  7 */
(PID.TID 0000.0001)                 2.598919724358304E+05,      /* J =  8 */
(PID.TID 0000.0001)                 2.693210245495156E+05,      /* J =  9 */
(PID.TID 0000.0001)                 2.774243179696503E+05,      /* J = 10 */
(PID.TID 0000.0001)                 2.842862532064524E+05,      /* J = 11 */
(PID.TID 0000.0001)                 2.899590699694043E+05,      /* J = 12 */
(PID.TID 0000.0001)                 2.944742915095688E+05,      /* J = 13 */
(PID.TID 0000.0001)                 2.978501920522794E+05,      /* J = 14 */
(PID.TID 0000.0001)                 3.000967749619962E+05,      /* J = 15 */
(PID.TID 0000.0001)     2 @  3.012190981969055E+05,             /* J = 16: 17 */
(PID.TID 0000.0001)                 3.000967749619962E+05,      /* J = 18 */
(PID.TID 0000.0001)                 2.978501920522794E+05,      /* J = 19 */
(PID.TID 0000.0001)                 2.944742915095688E+05,      /* J = 20 */
(PID.TID 0000.0001)                 2.899590699694043E+05,      /* J = 21 */
(PID.TID 0000.0001)                 2.842862532064524E+05,      /* J = 22 */
(PID.TID 0000.0001)                 2.774243179696503E+05,      /* J = 23 */
(PID.TID 0000.0001)                 2.693210245495156E+05,      /* J = 24 */
(PID.TID 0000.0001)                 2.598919724358304E+05,      /* J = 25 */
(PID.TID 0000.0001)                 2.490022710862746E+05,      /* J = 26 */
(PID.TID 0000.0001)                 2.364352994647058E+05,      /* J = 27 */
(PID.TID 0000.0001)                 2.218350349844185E+05,      /* J = 28 */
(PID.TID 0000.0001)                 2.045883481718707E+05,      /* J = 29 */
(PID.TID 0000.0001)                 1.835530058121492E+05,      /* J = 30 */
(PID.TID 0000.0001)                 1.563594089971120E+05,      /* J = 31 */
(PID.TID 0000.0001)                 1.202082051331828E+05       /* J = 32 */
(PID.TID 0000.0001)     ;
(PID.TID 0000.0001) dxG =  /* dxG(:,1,:,1) ( units: m ) */
(PID.TID 0000.0001)                 1.009837800879055E+05,      /* I =  1 */
(PID.TID 0000.0001)                 1.534505834330338E+05,      /* I =  2 */
(PID.TID 0000.0001)                 1.823321598773926E+05,      /* I =  3 */
(PID.TID 0000.0001)      . . .
(PID.TID 0000.0001)                 2.977867909042096E+05,      /* I = 46 */
(PID.TID 0000.0001)                 3.000380090330854E+05,      /* I = 47 */
(PID.TID 0000.0001)                 3.011625828699101E+05,      /* I = 48 */
(PID.TID 0000.0001)                 3.011625828699101E+05,      /* I = 49 */
(PID.TID 0000.0001)                 3.000380090330854E+05,      /* I = 50 */
(PID.TID 0000.0001)                 2.977867909042096E+05,      /* I = 51 */
(PID.TID 0000.0001)      . . .
(PID.TID 0000.0001)                 1.823321598773926E+05,      /* I = 94 */
(PID.TID 0000.0001)                 1.534505834330338E+05,      /* I = 95 */
(PID.TID 0000.0001)                 1.009837800879055E+05,      /* I = 96 */
(PID.TID 0000.0001)                 1.009837800879055E+05,      /* I = 97 */
(PID.TID 0000.0001)                 1.534505834330338E+05,      /* I = 98 */
(PID.TID 0000.0001)                 1.823321598773926E+05,      /* I = 99 */
(PID.TID 0000.0001)      . . .
(PID.TID 0000.0001)                 2.977867909042096E+05,      /* I =142 */
(PID.TID 0000.0001)                 3.000380090330854E+05,      /* I =143 */
(PID.TID 0000.0001)                 3.011625828699101E+05,      /* I =144 */
(PID.TID 0000.0001)                 3.011625828699101E+05,      /* I =145 */
(PID.TID 0000.0001)                 3.000380090330854E+05,      /* I =146 */
(PID.TID 0000.0001)                 2.977867909042096E+05,      /* I =147 */
(PID.TID 0000.0001)      . . .
(PID.TID 0000.0001)                 1.823321598773926E+05,      /* I =190 */
(PID.TID 0000.0001)                 1.534505834330338E+05,      /* I =191 */
(PID.TID 0000.0001)                 1.009837800879055E+05       /* I =192 */
(PID.TID 0000.0001)     ;
(PID.TID 0000.0001) dxG =  /* dxG(1,:,1,:) ( units: m ) */
(PID.TID 0000.0001)                 1.009837800879055E+05,      /* J =  1 */
(PID.TID 0000.0001)                 1.403701524205398E+05,      /* J =  2 */
(PID.TID 0000.0001)                 1.716197227386011E+05,      /* J =  3 */
(PID.TID 0000.0001)                 1.950254041626018E+05,      /* J =  4 */
(PID.TID 0000.0001)                 2.138410773065497E+05,      /* J =  5 */
(PID.TID 0000.0001)                 2.295958105911512E+05,      /* J =  6 */
(PID.TID 0000.0001)                 2.430829951739083E+05,      /* J =  7 */
(PID.TID 0000.0001)                 2.547526806712889E+05,      /* J =  8 */
(PID.TID 0000.0001)                 2.648750305193301E+05,      /* J =  9 */
(PID.TID 0000.0001)                 2.736173771018112E+05,      /* J = 10 */
(PID.TID 0000.0001)                 2.810845823202647E+05,      /* J = 11 */
(PID.TID 0000.0001)                 2.873420591008078E+05,      /* J = 12 */
(PID.TID 0000.0001)                 2.924298293668651E+05,      /* J = 13 */
(PID.TID 0000.0001)                 2.963715635865306E+05,      /* J = 14 */
(PID.TID 0000.0001)                 2.991805843171258E+05,      /* J = 15 */
(PID.TID 0000.0001)                 3.008638765647886E+05,      /* J = 16 */
(PID.TID 0000.0001)                 3.014246674484008E+05,      /* J = 17 */
(PID.TID 0000.0001)                 3.008638765647886E+05,      /* J = 18 */
(PID.TID 0000.0001)                 2.991805843171258E+05,      /* J = 19 */
(PID.TID 0000.0001)                 2.963715635865306E+05,      /* J = 20 */
(PID.TID 0000.0001)                 2.924298293668651E+05,      /* J = 21 */
(PID.TID 0000.0001)                 2.873420591008078E+05,      /* J = 22 */
(PID.TID 0000.0001)                 2.810845823202647E+05,      /* J = 23 */
(PID.TID 0000.0001)                 2.736173771018112E+05,      /* J = 24 */
(PID.TID 0000.0001)                 2.648750305193301E+05,      /* J = 25 */
(PID.TID 0000.0001)                 2.547526806712889E+05,      /* J = 26 */
(PID.TID 0000.0001)                 2.430829951739083E+05,      /* J = 27 */
(PID.TID 0000.0001)                 2.295958105911512E+05,      /* J = 28 */
(PID.TID 0000.0001)                 2.138410773065497E+05,      /* J = 29 */
(PID.TID 0000.0001)                 1.950254041626018E+05,      /* J = 30 */
(PID.TID 0000.0001)                 1.716197227386011E+05,      /* J = 31 */
(PID.TID 0000.0001)                 1.403701524205398E+05       /* J = 32 */
(PID.TID 0000.0001)     ;
(PID.TID 0000.0001) dyG =  /* dyG(:,1,:,1) ( units: m ) */
(PID.TID 0000.0001)                 1.009837800879055E+05,      /* I =  1 */
(PID.TID 0000.0001)                 1.403701524205398E+05,      /* I =  2 */
(PID.TID 0000.0001)                 1.716197227386011E+05,      /* I =  3 */
(PID.TID 0000.0001)      . . .
(PID.TID 0000.0001)                 2.963715635865306E+05,      /* I = 46 */
(PID.TID 0000.0001)                 2.991805843171258E+05,      /* I = 47 */
(PID.TID 0000.0001)                 3.008638765647886E+05,      /* I = 48 */
(PID.TID 0000.0001)                 3.014246674484008E+05,      /* I = 49 */
(PID.TID 0000.0001)                 3.008638765647886E+05,      /* I = 50 */
(PID.TID 0000.0001)                 2.991805843171258E+05,      /* I = 51 */
(PID.TID 0000.0001)      . . .
(PID.TID 0000.0001)                 1.950254041626018E+05,      /* I = 94 */
(PID.TID 0000.0001)                 1.716197227386011E+05,      /* I = 95 */
(PID.TID 0000.0001)                 1.403701524205398E+05,      /* I = 96 */
(PID.TID 0000.0001)                 1.009837800879055E+05,      /* I = 97 */
(PID.TID 0000.0001)                 1.403701524205398E+05,      /* I = 98 */
(PID.TID 0000.0001)                 1.716197227386011E+05,      /* I = 99 */
(PID.TID 0000.0001)      . . .
(PID.TID 0000.0001)                 2.963715635865306E+05,      /* I =142 */
(PID.TID 0000.0001)                 2.991805843171258E+05,      /* I =143 */
(PID.TID 0000.0001)                 3.008638765647886E+05,      /* I =144 */
(PID.TID 0000.0001)                 3.014246674484008E+05,      /* I =145 */
(PID.TID 0000.0001)                 3.008638765647886E+05,      /* I =146 */
(PID.TID 0000.0001)                 2.991805843171258E+05,      /* I =147 */
(PID.TID 0000.0001)      . . .
(PID.TID 0000.0001)                 1.950254041626018E+05,      /* I =190 */
(PID.TID 0000.0001)                 1.716197227386011E+05,      /* I =191 */
(PID.TID 0000.0001)                 1.403701524205398E+05       /* I =192 */
(PID.TID 0000.0001)     ;
(PID.TID 0000.0001) dyG =  /* dyG(1,:,1,:) ( units: m ) */
(PID.TID 0000.0001)                 1.009837800879055E+05,      /* J =  1 */
(PID.TID 0000.0001)                 1.534505834330338E+05,      /* J =  2 */
(PID.TID 0000.0001)                 1.823321598773926E+05,      /* J =  3 */
(PID.TID 0000.0001)                 2.038999045536999E+05,      /* J =  4 */
(PID.TID 0000.0001)                 2.213884732245467E+05,      /* J =  5 */
(PID.TID 0000.0001)                 2.361211699596122E+05,      /* J =  6 */
(PID.TID 0000.0001)                 2.487693460283865E+05,      /* J =  7 */
(PID.TID 0000.0001)                 2.597126963772147E+05,      /* J =  8 */
(PID.TID 0000.0001)                 2.691790288994575E+05,      /* J =  9 */
(PID.TID 0000.0001)                 2.773091043277394E+05,      /* J = 10 */
(PID.TID 0000.0001)                 2.841906470085516E+05,      /* J = 11 */
(PID.TID 0000.0001)                 2.898778860929753E+05,      /* J = 12 */
(PID.TID 0000.0001)                 2.944035815526416E+05,      /* J = 13 */
(PID.TID 0000.0001)                 2.977867909042096E+05,      /* J = 14 */
(PID.TID 0000.0001)                 3.000380090330854E+05,      /* J = 15 */
(PID.TID 0000.0001)     2 @  3.011625828699101E+05,             /* J = 16: 17 */
(PID.TID 0000.0001)                 3.000380090330854E+05,      /* J = 18 */
(PID.TID 0000.0001)                 2.977867909042096E+05,      /* J = 19 */
(PID.TID 0000.0001)                 2.944035815526416E+05,      /* J = 20 */
(PID.TID 0000.0001)                 2.898778860929753E+05,      /* J = 21 */
(PID.TID 0000.0001)                 2.841906470085516E+05,      /* J = 22 */
(PID.TID 0000.0001)                 2.773091043277394E+05,      /* J = 23 */
(PID.TID 0000.0001)                 2.691790288994575E+05,      /* J = 24 */
(PID.TID 0000.0001)                 2.597126963772147E+05,      /* J = 25 */
(PID.TID 0000.0001)                 2.487693460283865E+05,      /* J = 26 */
(PID.TID 0000.0001)                 2.361211699596122E+05,      /* J = 27 */
(PID.TID 0000.0001)                 2.213884732245467E+05,      /* J = 28 */
(PID.TID 0000.0001)                 2.038999045536999E+05,      /* J = 29 */
(PID.TID 0000.0001)                 1.823321598773926E+05,      /* J = 30 */
(PID.TID 0000.0001)                 1.534505834330338E+05,      /* J = 31 */
(PID.TID 0000.0001)                 1.009837800879055E+05       /* J = 32 */
(PID.TID 0000.0001)     ;
(PID.TID 0000.0001) dxC =  /* dxC(:,1,:,1) ( units: m ) */
(PID.TID 0000.0001)                 1.135373000692312E+05,      /* I =  1 */
(PID.TID 0000.0001)                 1.391343389937106E+05,      /* I =  2 */
(PID.TID 0000.0001)                 1.709574999026266E+05,      /* I =  3 */
(PID.TID 0000.0001)      . . .
(PID.TID 0000.0001)                 2.963038832565530E+05,      /* I = 46 */
(PID.TID 0000.0001)                 2.991142470004740E+05,      /* I = 47 */
(PID.TID 0000.0001)                 3.007982711627968E+05,      /* I = 48 */
(PID.TID 0000.0001)                 3.013593857228136E+05,      /* I = 49 */
(PID.TID 0000.0001)                 3.007982711627968E+05,      /* I = 50 */
(PID.TID 0000.0001)                 2.991142470004740E+05,      /* I = 51 */
(PID.TID 0000.0001)      . . .
(PID.TID 0000.0001)                 1.946503699269892E+05,      /* I = 94 */
(PID.TID 0000.0001)                 1.709574999026266E+05,      /* I = 95 */
(PID.TID 0000.0001)                 1.391343389937106E+05,      /* I = 96 */
(PID.TID 0000.0001)                 1.135373000692312E+05,      /* I = 97 */
(PID.TID 0000.0001)                 1.391343389937106E+05,      /* I = 98 */
(PID.TID 0000.0001)                 1.709574999026266E+05,      /* I = 99 */
(PID.TID 0000.0001)      . . .
(PID.TID 0000.0001)                 2.963038832565530E+05,      /* I =142 */
(PID.TID 0000.0001)                 2.991142470004740E+05,      /* I =143 */
(PID.TID 0000.0001)                 3.007982711627968E+05,      /* I =144 */
(PID.TID 0000.0001)                 3.013593857228136E+05,      /* I =145 */
(PID.TID 0000.0001)                 3.007982711627968E+05,      /* I =146 */
(PID.TID 0000.0001)                 2.991142470004740E+05,      /* I =147 */
(PID.TID 0000.0001)      . . .
(PID.TID 0000.0001)                 1.946503699269892E+05,      /* I =190 */
(PID.TID 0000.0001)                 1.709574999026266E+05,      /* I =191 */
(PID.TID 0000.0001)                 1.391343389937106E+05       /* I =192 */
(PID.TID 0000.0001)     ;
(PID.TID 0000.0001) dxC =  /* dxC(1,:,1,:) ( units: m ) */
(PID.TID 0000.0001)                 1.135373000692312E+05,      /* J =  1 */
(PID.TID 0000.0001)                 1.549545757850771E+05,      /* J =  2 */
(PID.TID 0000.0001)                 1.829777599966776E+05,      /* J =  3 */
(PID.TID 0000.0001)                 2.042717761866506E+05,      /* J =  4 */
(PID.TID 0000.0001)                 2.216367828252819E+05,      /* J =  5 */
(PID.TID 0000.0001)                 2.363029564123586E+05,      /* J =  6 */
(PID.TID 0000.0001)                 2.489113743322025E+05,      /* J =  7 */
(PID.TID 0000.0001)                 2.598293319150326E+05,      /* J =  8 */
(PID.TID 0000.0001)                 2.692787333338535E+05,      /* J =  9 */
(PID.TID 0000.0001)                 2.773972106720365E+05,      /* J = 10 */
(PID.TID 0000.0001)                 2.842706922224557E+05,      /* J = 11 */
(PID.TID 0000.0001)                 2.899523122489403E+05,      /* J = 12 */
(PID.TID 0000.0001)                 2.944741346384699E+05,      /* J = 13 */
(PID.TID 0000.0001)                 2.978547649292580E+05,      /* J = 14 */
(PID.TID 0000.0001)                 3.001044073506459E+05,      /* J = 15 */
(PID.TID 0000.0001)     2 @  3.012281885409289E+05,             /* J = 16: 17 */
(PID.TID 0000.0001)                 3.001044073506459E+05,      /* J = 18 */
(PID.TID 0000.0001)                 2.978547649292580E+05,      /* J = 19 */
(PID.TID 0000.0001)                 2.944741346384699E+05,      /* J = 20 */
(PID.TID 0000.0001)                 2.899523122489403E+05,      /* J = 21 */
(PID.TID 0000.0001)                 2.842706922224557E+05,      /* J = 22 */
(PID.TID 0000.0001)                 2.773972106720365E+05,      /* J = 23 */
(PID.TID 0000.0001)                 2.692787333338535E+05,      /* J = 24 */
(PID.TID 0000.0001)                 2.598293319150326E+05,      /* J = 25 */
(PID.TID 0000.0001)                 2.489113743322025E+05,      /* J = 26 */
(PID.TID 0000.0001)                 2.363029564123586E+05,      /* J = 27 */
(PID.TID 0000.0001)                 2.216367828252819E+05,      /* J = 28 */
(PID.TID 0000.0001)                 2.042717761866506E+05,      /* J = 29 */
(PID.TID 0000.0001)                 1.829777599966776E+05,      /* J = 30 */
(PID.TID 0000.0001)                 1.549545757850771E+05,      /* J = 31 */
(PID.TID 0000.0001)                 1.135373000692312E+05       /* J = 32 */
(PID.TID 0000.0001)     ;
(PID.TID 0000.0001) dyC =  /* dyC(:,1,:,1) ( units: m ) */
(PID.TID 0000.0001)                 1.135373000692312E+05,      /* I =  1 */
(PID.TID 0000.0001)                 1.549545757850771E+05,      /* I =  2 */
(PID.TID 0000.0001)                 1.829777599966776E+05,      /* I =  3 */
(PID.TID 0000.0001)      . . .
(PID.TID 0000.0001)                 2.978547649292580E+05,      /* I = 46 */
(PID.TID 0000.0001)                 3.001044073506459E+05,      /* I = 47 */
(PID.TID 0000.0001)                 3.012281885409289E+05,      /* I = 48 */
(PID.TID 0000.0001)                 3.012281885409289E+05,      /* I = 49 */
(PID.TID 0000.0001)                 3.001044073506459E+05,      /* I = 50 */
(PID.TID 0000.0001)                 2.978547649292580E+05,      /* I = 51 */
(PID.TID 0000.0001)      . . .
(PID.TID 0000.0001)                 1.829777599966776E+05,      /* I = 94 */
(PID.TID 0000.0001)                 1.549545757850771E+05,      /* I = 95 */
(PID.TID 0000.0001)                 1.135373000692312E+05,      /* I = 96 */
(PID.TID 0000.0001)                 1.135373000692312E+05,      /* I = 97 */
(PID.TID 0000.0001)                 1.549545757850771E+05,      /* I = 98 */
(PID.TID 0000.0001)                 1.829777599966776E+05,      /* I = 99 */
(PID.TID 0000.0001)      . . .
(PID.TID 0000.0001)                 2.978547649292580E+05,      /* I =142 */
(PID.TID 0000.0001)                 3.001044073506459E+05,      /* I =143 */
(PID.TID 0000.0001)                 3.012281885409289E+05,      /* I =144 */
(PID.TID 0000.0001)                 3.012281885409289E+05,      /* I =145 */
(PID.TID 0000.0001)                 3.001044073506459E+05,      /* I =146 */
(PID.TID 0000.0001)                 2.978547649292580E+05,      /* I =147 */
(PID.TID 0000.0001)      . . .
(PID.TID 0000.0001)                 1.829777599966776E+05,      /* I =190 */
(PID.TID 0000.0001)                 1.549545757850771E+05,      /* I =191 */
(PID.TID 0000.0001)                 1.135373000692312E+05       /* I =192 */
(PID.TID 0000.0001)     ;
(PID.TID 0000.0001) dyC =  /* dyC(1,:,1,:) ( units: m ) */
(PID.TID 0000.0001)                 1.135373000692312E+05,      /* J =  1 */
(PID.TID 0000.0001)                 1.391343389937106E+05,      /* J =  2 */
(PID.TID 0000.0001)                 1.709574999026266E+05,      /* J =  3 */
(PID.TID 0000.0001)                 1.946503699269892E+05,      /* J =  4 */
(PID.TID 0000.0001)                 2.135964483342134E+05,      /* J =  5 */
(PID.TID 0000.0001)                 2.294195678257306E+05,      /* J =  6 */
(PID.TID 0000.0001)                 2.429464709770498E+05,      /* J =  7 */
(PID.TID 0000.0001)                 2.546408290696998E+05,      /* J =  8 */
(PID.TID 0000.0001)                 2.647791839299727E+05,      /* J =  9 */
(PID.TID 0000.0001)                 2.735321911346108E+05,      /* J = 10 */
(PID.TID 0000.0001)                 2.810065951609633E+05,      /* J = 11 */
(PID.TID 0000.0001)                 2.872689479506990E+05,      /* J = 12 */
(PID.TID 0000.0001)                 2.923599955312932E+05,      /* J = 13 */
(PID.TID 0000.0001)                 2.963038832565530E+05,      /* J = 14 */
(PID.TID 0000.0001)                 2.991142470004740E+05,      /* J = 15 */
(PID.TID 0000.0001)                 3.007982711627968E+05,      /* J = 16 */
(PID.TID 0000.0001)                 3.013593857228136E+05,      /* J = 17 */
(PID.TID 0000.0001)                 3.007982711627968E+05,      /* J = 18 */
(PID.TID 0000.0001)                 2.991142470004740E+05,      /* J = 19 */
(PID.TID 0000.0001)                 2.963038832565530E+05,      /* J = 20 */
(PID.TID 0000.0001)                 2.923599955312932E+05,      /* J = 21 */
(PID.TID 0000.0001)                 2.872689479506990E+05,      /* J = 22 */
(PID.TID 0000.0001)                 2.810065951609633E+05,      /* J = 23 */
(PID.TID 0000.0001)                 2.735321911346108E+05,      /* J = 24 */
(PID.TID 0000.0001)                 2.647791839299727E+05,      /* J = 25 */
(PID.TID 0000.0001)                 2.546408290696998E+05,      /* J = 26 */
(PID.TID 0000.0001)                 2.429464709770498E+05,      /* J = 27 */
(PID.TID 0000.0001)                 2.294195678257306E+05,      /* J = 28 */
(PID.TID 0000.0001)                 2.135964483342134E+05,      /* J = 29 */
(PID.TID 0000.0001)                 1.946503699269892E+05,      /* J = 30 */
(PID.TID 0000.0001)                 1.709574999026266E+05,      /* J = 31 */
(PID.TID 0000.0001)                 1.391343389937106E+05       /* J = 32 */
(PID.TID 0000.0001)     ;
(PID.TID 0000.0001) dxV =  /* dxV(:,1,:,1) ( units: m ) */
(PID.TID 0000.0001)                 8.015229982413632E+04,      /* I =  1 */
(PID.TID 0000.0001)                 1.333130744933864E+05,      /* I =  2 */
(PID.TID 0000.0001)                 1.691744868129062E+05,      /* I =  3 */
(PID.TID 0000.0001)      . . .
(PID.TID 0000.0001)                 2.962371870847826E+05,      /* I = 46 */
(PID.TID 0000.0001)                 2.990534755671296E+05,      /* I = 47 */
(PID.TID 0000.0001)                 3.007409169495504E+05,      /* I = 48 */
(PID.TID 0000.0001)                 3.013031486919771E+05,      /* I = 49 */
(PID.TID 0000.0001)                 3.007409169495504E+05,      /* I = 50 */
(PID.TID 0000.0001)                 2.990534755671296E+05,      /* I = 51 */
(PID.TID 0000.0001)      . . .
(PID.TID 0000.0001)                 1.937548202849060E+05,      /* I = 94 */
(PID.TID 0000.0001)                 1.691744868129062E+05,      /* I = 95 */
(PID.TID 0000.0001)                 1.333130744933864E+05,      /* I = 96 */
(PID.TID 0000.0001)                 8.015229982413632E+04,      /* I = 97 */
(PID.TID 0000.0001)                 1.333130744933864E+05,      /* I = 98 */
(PID.TID 0000.0001)                 1.691744868129062E+05,      /* I = 99 */
(PID.TID 0000.0001)      . . .
(PID.TID 0000.0001)                 2.962371870847826E+05,      /* I =142 */
(PID.TID 0000.0001)                 2.990534755671296E+05,      /* I =143 */
(PID.TID 0000.0001)                 3.007409169495504E+05,      /* I =144 */
(PID.TID 0000.0001)                 3.013031486919771E+05,      /* I =145 */
(PID.TID 0000.0001)                 3.007409169495504E+05,      /* I =146 */
(PID.TID 0000.0001)                 2.990534755671296E+05,      /* I =147 */
(PID.TID 0000.0001)      . . .
(PID.TID 0000.0001)                 1.937548202849060E+05,      /* I =190 */
(PID.TID 0000.0001)                 1.691744868129062E+05,      /* I =191 */
(PID.TID 0000.0001)                 1.333130744933864E+05       /* I =192 */
(PID.TID 0000.0001)     ;
(PID.TID 0000.0001) dxV =  /* dxV(1,:,1,:) ( units: m ) */
(PID.TID 0000.0001)                 8.015229982413632E+04,      /* J =  1 */
(PID.TID 0000.0001)                 1.362652340208229E+05,      /* J =  2 */
(PID.TID 0000.0001)                 1.701080315742101E+05,      /* J =  3 */
(PID.TID 0000.0001)                 1.942331448101592E+05,      /* J =  4 */
(PID.TID 0000.0001)                 2.133486626971531E+05,      /* J =  5 */
(PID.TID 0000.0001)                 2.292584591272880E+05,      /* J =  6 */
(PID.TID 0000.0001)                 2.428369969078989E+05,      /* J =  7 */
(PID.TID 0000.0001)                 2.545652950875683E+05,      /* J =  8 */
(PID.TID 0000.0001)                 2.647274964828301E+05,      /* J =  9 */
(PID.TID 0000.0001)                 2.734980225206389E+05,      /* J = 10 */
(PID.TID 0000.0001)                 2.809856491525217E+05,      /* J = 11 */
(PID.TID 0000.0001)                 2.872580915202295E+05,      /* J = 12 */
(PID.TID 0000.0001)                 2.923567890694162E+05,      /* J = 13 */
(PID.TID 0000.0001)                 2.963063101754721E+05,      /* J = 14 */
(PID.TID 0000.0001)                 2.991205495886625E+05,      /* J = 15 */
(PID.TID 0000.0001)                 3.008068453676764E+05,      /* J = 16 */
(PID.TID 0000.0001)                 3.013686170436881E+05,      /* J = 17 */
(PID.TID 0000.0001)                 3.008068453676764E+05,      /* J = 18 */
(PID.TID 0000.0001)                 2.991205495886625E+05,      /* J = 19 */
(PID.TID 0000.0001)                 2.963063101754721E+05,      /* J = 20 */
(PID.TID 0000.0001)                 2.923567890694162E+05,      /* J = 21 */
(PID.TID 0000.0001)                 2.872580915202295E+05,      /* J = 22 */
(PID.TID 0000.0001)                 2.809856491525217E+05,      /* J = 23 */
(PID.TID 0000.0001)                 2.734980225206389E+05,      /* J = 24 */
(PID.TID 0000.0001)                 2.647274964828301E+05,      /* J = 25 */
(PID.TID 0000.0001)                 2.545652950875683E+05,      /* J = 26 */
(PID.TID 0000.0001)                 2.428369969078989E+05,      /* J = 27 */
(PID.TID 0000.0001)                 2.292584591272880E+05,      /* J = 28 */
(PID.TID 0000.0001)                 2.133486626971531E+05,      /* J = 29 */
(PID.TID 0000.0001)                 1.942331448101592E+05,      /* J = 30 */
(PID.TID 0000.0001)                 1.701080315742101E+05,      /* J = 31 */
(PID.TID 0000.0001)                 1.362652340208229E+05       /* J = 32 */
(PID.TID 0000.0001)     ;
(PID.TID 0000.0001) dyU =  /* dyU(:,1,:,1) ( units: m ) */
(PID.TID 0000.0001)                 8.015229982413632E+04,      /* I =  1 */
(PID.TID 0000.0001)                 1.362652340208229E+05,      /* I =  2 */
(PID.TID 0000.0001)                 1.701080315742101E+05,      /* I =  3 */
(PID.TID 0000.0001)      . . .
(PID.TID 0000.0001)                 2.963063101754721E+05,      /* I = 46 */
(PID.TID 0000.0001)                 2.991205495886625E+05,      /* I = 47 */
(PID.TID 0000.0001)                 3.008068453676764E+05,      /* I = 48 */
(PID.TID 0000.0001)                 3.013686170436881E+05,      /* I = 49 */
(PID.TID 0000.0001)                 3.008068453676764E+05,      /* I = 50 */
(PID.TID 0000.0001)                 2.991205495886625E+05,      /* I = 51 */
(PID.TID 0000.0001)      . . .
(PID.TID 0000.0001)                 1.942331448101592E+05,      /* I = 94 */
(PID.TID 0000.0001)                 1.701080315742101E+05,      /* I = 95 */
(PID.TID 0000.0001)                 1.362652340208229E+05,      /* I = 96 */
(PID.TID 0000.0001)                 8.015229982413632E+04,      /* I = 97 */
(PID.TID 0000.0001)                 1.362652340208229E+05,      /* I = 98 */
(PID.TID 0000.0001)                 1.701080315742101E+05,      /* I = 99 */
(PID.TID 0000.0001)      . . .
(PID.TID 0000.0001)                 2.963063101754721E+05,      /* I =142 */
(PID.TID 0000.0001)                 2.991205495886625E+05,      /* I =143 */
(PID.TID 0000.0001)                 3.008068453676764E+05,      /* I =144 */
(PID.TID 0000.0001)                 3.013686170436881E+05,      /* I =145 */
(PID.TID 0000.0001)                 3.008068453676764E+05,      /* I =146 */
(PID.TID 0000.0001)                 2.991205495886625E+05,      /* I =147 */
(PID.TID 0000.0001)      . . .
(PID.TID 0000.0001)                 1.942331448101592E+05,      /* I =190 */
(PID.TID 0000.0001)                 1.701080315742101E+05,      /* I =191 */
(PID.TID 0000.0001)                 1.362652340208229E+05       /* I =192 */
(PID.TID 0000.0001)     ;
(PID.TID 0000.0001) dyU =  /* dyU(1,:,1,:) ( units: m ) */
(PID.TID 0000.0001)                 8.015229982413632E+04,      /* J =  1 */
(PID.TID 0000.0001)                 1.333130744933864E+05,      /* J =  2 */
(PID.TID 0000.0001)                 1.691744868129062E+05,      /* J =  3 */
(PID.TID 0000.0001)                 1.937548202849060E+05,      /* J =  4 */
(PID.TID 0000.0001)                 2.130490056267208E+05,      /* J =  5 */
(PID.TID 0000.0001)                 2.290479919481738E+05,      /* J =  6 */
(PID.TID 0000.0001)                 2.426774358027003E+05,      /* J =  7 */
(PID.TID 0000.0001)                 2.544372984215561E+05,      /* J =  8 */
(PID.TID 0000.0001)                 2.646201463834826E+05,      /* J =  9 */
(PID.TID 0000.0001)                 2.734046499619031E+05,      /* J = 10 */
(PID.TID 0000.0001)                 2.809019351693761E+05,      /* J = 11 */
(PID.TID 0000.0001)                 2.871811105274442E+05,      /* J = 12 */
(PID.TID 0000.0001)                 2.922844849381675E+05,      /* J = 13 */
(PID.TID 0000.0001)                 2.962371870847826E+05,      /* J = 14 */
(PID.TID 0000.0001)                 2.990534755671296E+05,      /* J = 15 */
(PID.TID 0000.0001)                 3.007409169495504E+05,      /* J = 16 */
(PID.TID 0000.0001)                 3.013031486919771E+05,      /* J = 17 */
(PID.TID 0000.0001)                 3.007409169495504E+05,      /* J = 18 */
(PID.TID 0000.0001)                 2.990534755671296E+05,      /* J = 19 */
(PID.TID 0000.0001)                 2.962371870847826E+05,      /* J = 20 */
(PID.TID 0000.0001)                 2.922844849381675E+05,      /* J = 21 */
(PID.TID 0000.0001)                 2.871811105274442E+05,      /* J = 22 */
(PID.TID 0000.0001)                 2.809019351693761E+05,      /* J = 23 */
(PID.TID 0000.0001)                 2.734046499619031E+05,      /* J = 24 */
(PID.TID 0000.0001)                 2.646201463834826E+05,      /* J = 25 */
(PID.TID 0000.0001)                 2.544372984215561E+05,      /* J = 26 */
(PID.TID 0000.0001)                 2.426774358027003E+05,      /* J = 27 */
(PID.TID 0000.0001)                 2.290479919481738E+05,      /* J = 28 */
(PID.TID 0000.0001)                 2.130490056267208E+05,      /* J = 29 */
(PID.TID 0000.0001)                 1.937548202849060E+05,      /* J = 30 */
(PID.TID 0000.0001)                 1.691744868129062E+05,      /* J = 31 */
(PID.TID 0000.0001)                 1.333130744933864E+05       /* J = 32 */
(PID.TID 0000.0001)     ;
(PID.TID 0000.0001) rA  =  /* rA (:,1,:,1) ( units: m^2 ) */
(PID.TID 0000.0001)                 1.549786705672200E+10,      /* I =  1 */
(PID.TID 0000.0001)                 2.487202533723944E+10,      /* I =  2 */
(PID.TID 0000.0001)                 3.392265412140352E+10,      /* I =  3 */
(PID.TID 0000.0001)      . . .
(PID.TID 0000.0001)                 8.871245486529788E+10,      /* I = 46 */
(PID.TID 0000.0001)                 9.005359372079962E+10,      /* I = 47 */
(PID.TID 0000.0001)                 9.072735712796770E+10,      /* I = 48 */
(PID.TID 0000.0001)                 9.072735712796770E+10,      /* I = 49 */
(PID.TID 0000.0001)                 9.005359372079962E+10,      /* I = 50 */
(PID.TID 0000.0001)                 8.871245486529788E+10,      /* I = 51 */
(PID.TID 0000.0001)      . . .
(PID.TID 0000.0001)                 3.392265412140352E+10,      /* I = 94 */
(PID.TID 0000.0001)                 2.487202533723944E+10,      /* I = 95 */
(PID.TID 0000.0001)                 1.549786705672200E+10,      /* I = 96 */
(PID.TID 0000.0001)                 1.549786705672200E+10,      /* I = 97 */
(PID.TID 0000.0001)                 2.487202533723944E+10,      /* I = 98 */
(PID.TID 0000.0001)                 3.392265412140352E+10,      /* I = 99 */
(PID.TID 0000.0001)      . . .
(PID.TID 0000.0001)                 8.871245486529788E+10,      /* I =142 */
(PID.TID 0000.0001)                 9.005359372079962E+10,      /* I =143 */
(PID.TID 0000.0001)                 9.072735712796770E+10,      /* I =144 */
(PID.TID 0000.0001)                 9.072735712796770E+10,      /* I =145 */
(PID.TID 0000.0001)                 9.005359372079962E+10,      /* I =146 */
(PID.TID 0000.0001)                 8.871245486529788E+10,      /* I =147 */
(PID.TID 0000.0001)      . . .
(PID.TID 0000.0001)                 3.392265412140352E+10,      /* I =190 */
(PID.TID 0000.0001)                 2.487202533723944E+10,      /* I =191 */
(PID.TID 0000.0001)                 1.549786705672200E+10       /* I =192 */
(PID.TID 0000.0001)     ;
(PID.TID 0000.0001) rA  =  /* rA (1,:,1,:) ( units: m^2 ) */
(PID.TID 0000.0001)                 1.549786705672200E+10,      /* J =  1 */
(PID.TID 0000.0001)                 2.487202533723944E+10,      /* J =  2 */
(PID.TID 0000.0001)                 3.392265412140352E+10,      /* J =  3 */
(PID.TID 0000.0001)                 4.200427377313133E+10,      /* J =  4 */
(PID.TID 0000.0001)                 4.931323764668228E+10,      /* J =  5 */
(PID.TID 0000.0001)                 5.597545074899419E+10,      /* J =  6 */
(PID.TID 0000.0001)                 6.205603937791459E+10,      /* J =  7 */
(PID.TID 0000.0001)                 6.758299971934573E+10,      /* J =  8 */
(PID.TID 0000.0001)                 7.256155653843707E+10,      /* J =  9 */
(PID.TID 0000.0001)                 7.698291833687604E+10,      /* J = 10 */
(PID.TID 0000.0001)                 8.083005486272011E+10,      /* J = 11 */
(PID.TID 0000.0001)                 8.408183191745641E+10,      /* J = 12 */
(PID.TID 0000.0001)                 8.671615787312848E+10,      /* J = 13 */
(PID.TID 0000.0001)                 8.871245486529788E+10,      /* J = 14 */
(PID.TID 0000.0001)                 9.005359372079964E+10,      /* J = 15 */
(PID.TID 0000.0001)     2 @  9.072735712796770E+10,             /* J = 16: 17 */
(PID.TID 0000.0001)                 9.005359372079964E+10,      /* J = 18 */
(PID.TID 0000.0001)                 8.871245486529788E+10,      /* J = 19 */
(PID.TID 0000.0001)                 8.671615787312848E+10,      /* J = 20 */
(PID.TID 0000.0001)                 8.408183191745641E+10,      /* J = 21 */
(PID.TID 0000.0001)                 8.083005486272011E+10,      /* J = 22 */
(PID.TID 0000.0001)                 7.698291833687604E+10,      /* J = 23 */
(PID.TID 0000.0001)                 7.256155653843707E+10,      /* J = 24 */
(PID.TID 0000.0001)                 6.758299971934573E+10,      /* J = 25 */
(PID.TID 0000.0001)                 6.205603937791459E+10,      /* J = 26 */
(PID.TID 0000.0001)                 5.597545074899419E+10,      /* J = 27 */
(PID.TID 0000.0001)                 4.931323764668228E+10,      /* J = 28 */
(PID.TID 0000.0001)                 4.200427377313133E+10,      /* J = 29 */
(PID.TID 0000.0001)                 3.392265412140352E+10,      /* J = 30 */
(PID.TID 0000.0001)                 2.487202533723944E+10,      /* J = 31 */
(PID.TID 0000.0001)                 1.549786705672200E+10       /* J = 32 */
(PID.TID 0000.0001)     ;
(PID.TID 0000.0001) rAw =  /* rAw(:,1,:,1) ( units: m^2 ) */
(PID.TID 0000.0001)                 1.146542574196578E+10,      /* I =  1 */
(PID.TID 0000.0001)                 1.953030837147821E+10,      /* I =  2 */
(PID.TID 0000.0001)                 2.933967873337320E+10,      /* I =  3 */
(PID.TID 0000.0001)      . . .
(PID.TID 0000.0001)                 8.781604517750543E+10,      /* I = 46 */
(PID.TID 0000.0001)                 8.948917519517891E+10,      /* I = 47 */
(PID.TID 0000.0001)                 9.049933392602551E+10,      /* I = 48 */
(PID.TID 0000.0001)                 9.083715262395341E+10,      /* I = 49 */
(PID.TID 0000.0001)                 9.049933392602551E+10,      /* I = 50 */
(PID.TID 0000.0001)                 8.948917519517891E+10,      /* I = 51 */
(PID.TID 0000.0001)      . . .
(PID.TID 0000.0001)                 3.796176706541101E+10,      /* I = 94 */
(PID.TID 0000.0001)                 2.933967873337320E+10,      /* I = 95 */
(PID.TID 0000.0001)                 1.953030837147821E+10,      /* I = 96 */
(PID.TID 0000.0001)                 1.146542574196578E+10,      /* I = 97 */
(PID.TID 0000.0001)                 1.953030837147821E+10,      /* I = 98 */
(PID.TID 0000.0001)                 2.933967873337320E+10,      /* I = 99 */
(PID.TID 0000.0001)      . . .
(PID.TID 0000.0001)                 8.781604517750543E+10,      /* I =142 */
(PID.TID 0000.0001)                 8.948917519517891E+10,      /* I =143 */
(PID.TID 0000.0001)                 9.049933392602551E+10,      /* I =144 */
(PID.TID 0000.0001)                 9.083715262395341E+10,      /* I =145 */
(PID.TID 0000.0001)                 9.049933392602551E+10,      /* I =146 */
(PID.TID 0000.0001)                 8.948917519517891E+10,      /* I =147 */
(PID.TID 0000.0001)      . . .
(PID.TID 0000.0001)                 3.796176706541101E+10,      /* I =190 */
(PID.TID 0000.0001)                 2.933967873337320E+10,      /* I =191 */
(PID.TID 0000.0001)                 1.953030837147821E+10       /* I =192 */
(PID.TID 0000.0001)     ;
(PID.TID 0000.0001) rAw =  /* rAw(1,:,1,:) ( units: m^2 ) */
(PID.TID 0000.0001)                 1.146542574196578E+10,      /* J =  1 */
(PID.TID 0000.0001)                 2.377787005983833E+10,      /* J =  2 */
(PID.TID 0000.0001)                 3.336273018972140E+10,      /* J =  3 */
(PID.TID 0000.0001)                 4.165099566747280E+10,      /* J =  4 */
(PID.TID 0000.0001)                 4.906782896008959E+10,      /* J =  5 */
(PID.TID 0000.0001)                 5.579613053300137E+10,      /* J =  6 */
(PID.TID 0000.0001)                 6.192151981164894E+10,      /* J =  7 */
(PID.TID 0000.0001)                 6.748097638954340E+10,      /* J =  8 */
(PID.TID 0000.0001)                 7.248418794208269E+10,      /* J =  9 */
(PID.TID 0000.0001)                 7.692477203447566E+10,      /* J = 10 */
(PID.TID 0000.0001)                 8.078707194826852E+10,      /* J = 11 */
(PID.TID 0000.0001)                 8.405076334249313E+10,      /* J = 12 */
(PID.TID 0000.0001)                 8.669423991218034E+10,      /* J = 13 */
(PID.TID 0000.0001)                 8.869721460381146E+10,      /* J = 14 */
(PID.TID 0000.0001)                 9.004272888354184E+10,      /* J = 15 */
(PID.TID 0000.0001)     2 @  9.071865929421040E+10,             /* J = 16: 17 */
(PID.TID 0000.0001)                 9.004272888354184E+10,      /* J = 18 */
(PID.TID 0000.0001)                 8.869721460381146E+10,      /* J = 19 */
(PID.TID 0000.0001)                 8.669423991218034E+10,      /* J = 20 */
(PID.TID 0000.0001)                 8.405076334249313E+10,      /* J = 21 */
(PID.TID 0000.0001)                 8.078707194826852E+10,      /* J = 22 */
(PID.TID 0000.0001)                 7.692477203447566E+10,      /* J = 23 */
(PID.TID 0000.0001)                 7.248418794208269E+10,      /* J = 24 */
(PID.TID 0000.0001)                 6.748097638954340E+10,      /* J = 25 */
(PID.TID 0000.0001)                 6.192151981164894E+10,      /* J = 26 */
(PID.TID 0000.0001)                 5.579613053300137E+10,      /* J = 27 */
(PID.TID 0000.0001)                 4.906782896008959E+10,      /* J = 28 */
(PID.TID 0000.0001)                 4.165099566747280E+10,      /* J = 29 */
(PID.TID 0000.0001)                 3.336273018972140E+10,      /* J = 30 */
(PID.TID 0000.0001)                 2.377787005983833E+10,      /* J = 31 */
(PID.TID 0000.0001)                 1.146542574196578E+10       /* J = 32 */
(PID.TID 0000.0001)     ;
(PID.TID 0000.0001) rAs =  /* rAs(:,1,:,1) ( units: m^2 ) */
(PID.TID 0000.0001)                 1.146542574196578E+10,      /* I =  1 */
(PID.TID 0000.0001)                 2.377787005983833E+10,      /* I =  2 */
(PID.TID 0000.0001)                 3.336273018972140E+10,      /* I =  3 */
(PID.TID 0000.0001)      . . .
(PID.TID 0000.0001)                 8.869721460381146E+10,      /* I = 46 */
(PID.TID 0000.0001)                 9.004272888354184E+10,      /* I = 47 */
(PID.TID 0000.0001)                 9.071865929421040E+10,      /* I = 48 */
(PID.TID 0000.0001)                 9.071865929421040E+10,      /* I = 49 */
(PID.TID 0000.0001)                 9.004272888354184E+10,      /* I = 50 */
(PID.TID 0000.0001)                 8.869721460381146E+10,      /* I = 51 */
(PID.TID 0000.0001)      . . .
(PID.TID 0000.0001)                 3.336273018972140E+10,      /* I = 94 */
(PID.TID 0000.0001)                 2.377787005983833E+10,      /* I = 95 */
(PID.TID 0000.0001)                 1.146542574196578E+10,      /* I = 96 */
(PID.TID 0000.0001)                 1.146542574196578E+10,      /* I = 97 */
(PID.TID 0000.0001)                 2.377787005983833E+10,      /* I = 98 */
(PID.TID 0000.0001)                 3.336273018972140E+10,      /* I = 99 */
(PID.TID 0000.0001)      . . .
(PID.TID 0000.0001)                 8.869721460381146E+10,      /* I =142 */
(PID.TID 0000.0001)                 9.004272888354184E+10,      /* I =143 */
(PID.TID 0000.0001)                 9.071865929421040E+10,      /* I =144 */
(PID.TID 0000.0001)                 9.071865929421040E+10,      /* I =145 */
(PID.TID 0000.0001)                 9.004272888354184E+10,      /* I =146 */
(PID.TID 0000.0001)                 8.869721460381146E+10,      /* I =147 */
(PID.TID 0000.0001)      . . .
(PID.TID 0000.0001)                 3.336273018972140E+10,      /* I =190 */
(PID.TID 0000.0001)                 2.377787005983833E+10,      /* I =191 */
(PID.TID 0000.0001)                 1.146542574196578E+10       /* I =192 */
(PID.TID 0000.0001)     ;
(PID.TID 0000.0001) rAs =  /* rAs(1,:,1,:) ( units: m^2 ) */
(PID.TID 0000.0001)                 1.146542574196578E+10,      /* J =  1 */
(PID.TID 0000.0001)                 1.953030837147821E+10,      /* J =  2 */
(PID.TID 0000.0001)                 2.933967873337320E+10,      /* J =  3 */
(PID.TID 0000.0001)                 3.796176706541101E+10,      /* J =  4 */
(PID.TID 0000.0001)                 4.567569462064098E+10,      /* J =  5 */
(PID.TID 0000.0001)                 5.267377164042021E+10,      /* J =  6 */
(PID.TID 0000.0001)                 5.905615583203223E+10,      /* J =  7 */
(PID.TID 0000.0001)                 6.487043381386549E+10,      /* J =  8 */
(PID.TID 0000.0001)                 7.013339442433482E+10,      /* J =  9 */
(PID.TID 0000.0001)                 7.484316069116351E+10,      /* J = 10 */
(PID.TID 0000.0001)                 7.898662143005907E+10,      /* J = 11 */
(PID.TID 0000.0001)                 8.254445101987663E+10,      /* J = 12 */
(PID.TID 0000.0001)                 8.549478360691351E+10,      /* J = 13 */
(PID.TID 0000.0001)                 8.781604517750543E+10,      /* J = 14 */
(PID.TID 0000.0001)                 8.948917519517891E+10,      /* J = 15 */
(PID.TID 0000.0001)                 9.049933392602551E+10,      /* J = 16 */
(PID.TID 0000.0001)                 9.083715262395341E+10,      /* J = 17 */
(PID.TID 0000.0001)                 9.049933392602551E+10,      /* J = 18 */
(PID.TID 0000.0001)                 8.948917519517891E+10,      /* J = 19 */
(PID.TID 0000.0001)                 8.781604517750543E+10,      /* J = 20 */
(PID.TID 0000.0001)                 8.549478360691351E+10,      /* J = 21 */
(PID.TID 0000.0001)                 8.254445101987663E+10,      /* J = 22 */
(PID.TID 0000.0001)                 7.898662143005907E+10,      /* J = 23 */
(PID.TID 0000.0001)                 7.484316069116351E+10,      /* J = 24 */
(PID.TID 0000.0001)                 7.013339442433482E+10,      /* J = 25 */
(PID.TID 0000.0001)                 6.487043381386549E+10,      /* J = 26 */
(PID.TID 0000.0001)                 5.905615583203223E+10,      /* J = 27 */
(PID.TID 0000.0001)                 5.267377164042021E+10,      /* J = 28 */
(PID.TID 0000.0001)                 4.567569462064098E+10,      /* J = 29 */
(PID.TID 0000.0001)                 3.796176706541101E+10,      /* J = 30 */
(PID.TID 0000.0001)                 2.933967873337320E+10,      /* J = 31 */
(PID.TID 0000.0001)                 1.953030837147821E+10       /* J = 32 */
(PID.TID 0000.0001)     ;
(PID.TID 0000.0001) globalArea = /* Integrated horizontal Area (m^2) */
(PID.TID 0000.0001)                 5.098642104278459E+14
(PID.TID 0000.0001)     ;
(PID.TID 0000.0001) hasWetCSCorners = /* Domain contains CS corners (True/False) */
(PID.TID 0000.0001)                   T
(PID.TID 0000.0001)     ;
(PID.TID 0000.0001) // =======================================================
(PID.TID 0000.0001) // End of Model config. summary
(PID.TID 0000.0001) // =======================================================
(PID.TID 0000.0001) 
(PID.TID 0000.0001) == Packages configuration : Check & print summary ==
(PID.TID 0000.0001) 
(PID.TID 0000.0001) ATM_PHYS_CHECK: #define ALLOW_ATM_PHYS
(PID.TID 0000.0001) atmPhys_addTendT = /* apply Atm-Phys tendency to Temperature Eq.*/
(PID.TID 0000.0001)                   T
(PID.TID 0000.0001)     ;
(PID.TID 0000.0001) atmPhys_addTendS = /* apply Atm-Phys tendency to Salinity Eq.*/
(PID.TID 0000.0001)                   T
(PID.TID 0000.0001)     ;
(PID.TID 0000.0001) atmPhys_addTendU = /* apply Atm-Phys tendency to U momentum Eq.*/
(PID.TID 0000.0001)                   T
(PID.TID 0000.0001)     ;
(PID.TID 0000.0001) atmPhys_addTendV = /* apply Atm-Phys tendency to V momentum Eq.*/
(PID.TID 0000.0001)                   T
(PID.TID 0000.0001)     ;
(PID.TID 0000.0001) atmPhys_stepSST = /* step forward SST field */
(PID.TID 0000.0001)                   F
(PID.TID 0000.0001)     ;
(PID.TID 0000.0001) atmPhys_dampUVfac = /* U,V danping coefficient (1/s) */
(PID.TID 0000.0001)    20 @  0.000000000000000E+00,             /* K =  1: 20 */
(PID.TID 0000.0001)                 1.446759259259259E-06,      /* K = 21 */
(PID.TID 0000.0001)                 2.893518518518518E-06,      /* K = 22 */
(PID.TID 0000.0001)                 5.787037037037037E-06,      /* K = 23 */
(PID.TID 0000.0001)                 1.157407407407407E-05,      /* K = 24 */
(PID.TID 0000.0001)                 2.314814814814815E-05,      /* K = 25 */
(PID.TID 0000.0001)                 4.629629629629629E-05       /* K = 26 */
(PID.TID 0000.0001)     ;
(PID.TID 0000.0001) atmPhys_SSTFile = /* SST input file */
(PID.TID 0000.0001)               'SST_APE_1.bin'
(PID.TID 0000.0001)     ;
(PID.TID 0000.0001) atmPhys_QflxFile = /* Q-flux input file */
(PID.TID 0000.0001)               ''
(PID.TID 0000.0001)     ;
(PID.TID 0000.0001) 
(PID.TID 0000.0001) GAD_CHECK: #define ALLOW_GENERIC_ADVDIFF
(PID.TID 0000.0001) // =======================================================
(PID.TID 0000.0001) // Check Model config. (CONFIG_CHECK):
(PID.TID 0000.0001) // CONFIG_CHECK : Normal End
(PID.TID 0000.0001) // =======================================================
(PID.TID 0000.0001) 
(PID.TID 0000.0001)  MDS_READ_FIELD: opening global file: ini_theta_26l.bin
(PID.TID 0000.0001)  MDS_READ_FIELD: opening global file: ini_specQ_26l.bin
(PID.TID 0000.0001) Start initial hydrostatic pressure computation
(PID.TID 0000.0001) Iteration   1, RMS-difference =  3.507436152430E+04
(PID.TID 0000.0001) Iteration   2, RMS-difference =  0.000000000000E+00
(PID.TID 0000.0001) Initial hydrostatic pressure converged.
(PID.TID 0000.0001) 
(PID.TID 0000.0001)  write diagnostics summary to file ioUnit:      6
Iter.Nb:         0 ; Time(s):  0.0000000000000E+00
------------------------------------------------------------------------
2D/3D diagnostics: Number of lists:     2
------------------------------------------------------------------------
listId=    1 ; file name: surfDiag
 nFlds, nActive,       freq     &     phase        , nLev               
   15  |   15  |    432000.000000         0.000000 |   1
 levels:   1
 diag# | name   |   ipt  |  iMate | kLev|   count |   mate.C|           
    23 |ETAN    |      1 |      0 |   1 |       0 |
    24 |ETANSQ  |      2 |      0 |   1 |       0 |
    25 |DETADT2 |      3 |      0 |   1 |       0 |
   195 |AtPhCnvP|      4 |      0 |   1 |       0 |
   196 |AtPhLscP|      5 |      0 |   1 |       0 |
   204 |AtPhSens|      6 |      0 |   1 |       0 |
   205 |AtPhEvap|      7 |      0 |   1 |       0 |
   206 |AtPhTauX|      8 |      0 |   1 |       0 |
   207 |AtPhTauY|      9 |      0 |   1 |       0 |
   188 |AtPh_SST|     10 |      0 |   1 |       0 |
   197 |AtPhInSR|     11 |      0 |   1 |       0 |
   199 |AtPhOLR |     12 |      0 |   1 |       0 |
   201 |AtPhNSSR|     13 |      0 |   1 |       0 |
   202 |AtPhDSLR|     14 |      0 |   1 |       0 |
   203 |AtPhUSLR|     15 |      0 |   1 |       0 |
------------------------------------------------------------------------
listId=    2 ; file name: dynDiag
 nFlds, nActive,       freq     &     phase        , nLev               
   14  |   14  |    432000.000000         0.000000 |  26
 levels:   1   2   3   4   5   6   7   8   9  10  11  12  13  14  15  16  17  18  19  20  21  22  23  24  25
 levels:  26
 diag# | name   |   ipt  |  iMate | kLev|   count |   mate.C|           
    29 |UVEL    |     16 |     42 |  26 |       0 |       0 |
    30 |VVEL    |     42 |     16 |  26 |       0 |       0 |
    31 |WVEL    |     68 |      0 |  26 |       0 |
    26 |THETA   |     94 |      0 |  26 |       0 |
    27 |SALT    |    120 |      0 |  26 |       0 |
    34 |UVELSQ  |    146 |    172 |  26 |       0 |       0 |
    35 |VVELSQ  |    172 |    146 |  26 |       0 |       0 |
    36 |WVELSQ  |    198 |      0 |  26 |       0 |
    32 |THETASQ |    224 |      0 |  26 |       0 |
    33 |SALTSQ  |    250 |      0 |  26 |       0 |
    43 |UVELMASS|    276 |    302 |  26 |       0 |       0 |
    44 |VVELMASS|    302 |    276 |  26 |       0 |       0 |
    39 |UV_VEL_C|    328 |    328 |  26 |       0 |       0 |
    28 |RELHUM  |    354 |      0 |  26 |       0 |
------------------------------------------------------------------------
Global & Regional Statistics diagnostics: Number of lists:     3
------------------------------------------------------------------------
listId=   1 ; file name: dynStDiag
 nFlds, nActive,       freq     &     phase        |                    
   11  |   11  |     43200.000000         0.000000 |
 Regions:   0
 diag# | name   |   ipt  |  iMate |    Volume   |   mate-Vol. |         
    23 |ETAN    |      1 |      0 | 0.00000E+00 |
    26 |THETA   |      2 |      0 | 0.00000E+00 |
    27 |SALT    |     28 |      0 | 0.00000E+00 |
    28 |RELHUM  |     54 |      0 | 0.00000E+00 |
    37 |UE_VEL_C|     80 |      0 | 0.00000E+00 |
    38 |VN_VEL_C|    106 |      0 | 0.00000E+00 |
    31 |WVEL    |    132 |      0 | 0.00000E+00 |
   189 |AtPhdTdt|    158 |      0 | 0.00000E+00 |
   190 |AtPhdQdt|    184 |      0 | 0.00000E+00 |
   191 |AtPhdUdt|    210 |      0 | 0.00000E+00 |
   192 |AtPhdVdt|    236 |      0 | 0.00000E+00 |
------------------------------------------------------------------------
listId=   2 ; file name: diffStDiag
 nFlds, nActive,       freq     &     phase        |                    
    7  |    7  |     43200.000000         0.000000 |
 Regions:   0
 diag# | name   |   ipt  |  iMate |    Volume   |   mate-Vol. |         
   193 |AtPhDifT|    262 |      0 | 0.00000E+00 |
   194 |AtPhDifM|    288 |      0 | 0.00000E+00 |
   218 |AtPhDisH|    314 |      0 | 0.00000E+00 |
   216 |AtPhdtTg|    340 |      0 | 0.00000E+00 |
   217 |AtPhdtQg|    366 |      0 | 0.00000E+00 |
   187 |SHAP_dKE|    392 |      0 | 0.00000E+00 |
    98 |MoistCor|    418 |      0 | 0.00000E+00 |
------------------------------------------------------------------------
listId=   3 ; file name: flxStDiag
 nFlds, nActive,       freq     &     phase        |                    
   12  |   12  |     43200.000000         0.000000 |
 Regions:   0
 diag# | name   |   ipt  |  iMate |    Volume   |   mate-Vol. |         
   204 |AtPhSens|    444 |      0 | 0.00000E+00 |
   205 |AtPhEvap|    445 |      0 | 0.00000E+00 |
   206 |AtPhTauX|    446 |      0 | 0.00000E+00 |
   207 |AtPhTauY|    447 |      0 | 0.00000E+00 |
   195 |AtPhCnvP|    448 |      0 | 0.00000E+00 |
   196 |AtPhLscP|    449 |      0 | 0.00000E+00 |
   188 |AtPh_SST|    450 |      0 | 0.00000E+00 |
   197 |AtPhInSR|    451 |      0 | 0.00000E+00 |
   199 |AtPhOLR |    452 |      0 | 0.00000E+00 |
   201 |AtPhNSSR|    453 |      0 | 0.00000E+00 |
   202 |AtPhDSLR|    454 |      0 | 0.00000E+00 |
   203 |AtPhUSLR|    455 |      0 | 0.00000E+00 |
------------------------------------------------------------------------
(PID.TID 0000.0001)  MDS_READ_FIELD: opening global file: SST_APE_1.bin
(PID.TID 0000.0001) // =======================================================
(PID.TID 0000.0001) // Model current state
(PID.TID 0000.0001) // =======================================================
(PID.TID 0000.0001) 
(PID.TID 0000.0001) // =======================================================
(PID.TID 0000.0001) // Begin MONITOR dynamic field statistics
(PID.TID 0000.0001) // =======================================================
(PID.TID 0000.0001) %MON time_tsnumber                =                     0
(PID.TID 0000.0001) %MON time_secondsf                =   0.0000000000000E+00
(PID.TID 0000.0001) %MON dynstat_eta_max              =   0.0000000000000E+00
(PID.TID 0000.0001) %MON dynstat_eta_min              =   0.0000000000000E+00
(PID.TID 0000.0001) %MON dynstat_eta_mean             =   0.0000000000000E+00
(PID.TID 0000.0001) %MON dynstat_eta_sd               =   0.0000000000000E+00
(PID.TID 0000.0001) %MON dynstat_eta_del2             =   0.0000000000000E+00
(PID.TID 0000.0001) %MON dynstat_uvel_max             =   0.0000000000000E+00
(PID.TID 0000.0001) %MON dynstat_uvel_min             =   0.0000000000000E+00
(PID.TID 0000.0001) %MON dynstat_uvel_mean            =   0.0000000000000E+00
(PID.TID 0000.0001) %MON dynstat_uvel_sd              =   0.0000000000000E+00
(PID.TID 0000.0001) %MON dynstat_uvel_del2            =   0.0000000000000E+00
(PID.TID 0000.0001) %MON dynstat_vvel_max             =   0.0000000000000E+00
(PID.TID 0000.0001) %MON dynstat_vvel_min             =   0.0000000000000E+00
(PID.TID 0000.0001) %MON dynstat_vvel_mean            =   0.0000000000000E+00
(PID.TID 0000.0001) %MON dynstat_vvel_sd              =   0.0000000000000E+00
(PID.TID 0000.0001) %MON dynstat_vvel_del2            =   0.0000000000000E+00
(PID.TID 0000.0001) %MON dynstat_wvel_max             =   0.0000000000000E+00
(PID.TID 0000.0001) %MON dynstat_wvel_min             =   0.0000000000000E+00
(PID.TID 0000.0001) %MON dynstat_wvel_mean            =   0.0000000000000E+00
(PID.TID 0000.0001) %MON dynstat_wvel_sd              =   0.0000000000000E+00
(PID.TID 0000.0001) %MON dynstat_wvel_del2            =   0.0000000000000E+00
(PID.TID 0000.0001) %MON dynstat_theta_max            =   1.1535634846852E+03
(PID.TID 0000.0001) %MON dynstat_theta_min            =   2.5507757432656E+02
(PID.TID 0000.0001) %MON dynstat_theta_mean           =   3.2787660662240E+02
(PID.TID 0000.0001) %MON dynstat_theta_sd             =   9.0371224687477E+01
(PID.TID 0000.0001) %MON dynstat_theta_del2           =   5.5192238657586E-04
(PID.TID 0000.0001) %MON dynstat_salt_max             =   2.0315162198281E-02
(PID.TID 0000.0001) %MON dynstat_salt_min             =   0.0000000000000E+00
(PID.TID 0000.0001) %MON dynstat_salt_mean            =   1.7953625902710E-03
(PID.TID 0000.0001) %MON dynstat_salt_sd              =   3.7984703449388E-03
(PID.TID 0000.0001) %MON dynstat_salt_del2            =   1.3625554215944E-07
(PID.TID 0000.0001) %MON advcfl_uvel_max              =   0.0000000000000E+00
(PID.TID 0000.0001) %MON advcfl_vvel_max              =   0.0000000000000E+00
(PID.TID 0000.0001) %MON advcfl_wvel_max              =   0.0000000000000E+00
(PID.TID 0000.0001) %MON advcfl_W_hf_max              =   0.0000000000000E+00
(PID.TID 0000.0001) %MON am_eta_mean                  =   0.0000000000000E+00
(PID.TID 0000.0001) %MON am_uZo_mean                  =   0.0000000000000E+00
(PID.TID 0000.0001) %MON am_tot_mean                  =   0.0000000000000E+00
(PID.TID 0000.0001) %MON pe_b_mean                    =   0.0000000000000E+00
(PID.TID 0000.0001) %MON ke_max                       =   0.0000000000000E+00
(PID.TID 0000.0001) %MON ke_mean                      =   0.0000000000000E+00
(PID.TID 0000.0001) %MON ke_vol                       =   5.0986421042785E+19
(PID.TID 0000.0001) %MON vort_r_min                   =   0.0000000000000E+00
(PID.TID 0000.0001) %MON vort_r_max                   =   0.0000000000000E+00
(PID.TID 0000.0001) %MON vort_a_mean                  =  -2.4513551737851E-21
(PID.TID 0000.0001) %MON vort_a_sd                    =   8.4202189509969E-05
(PID.TID 0000.0001) %MON vort_p_mean                  =  -2.4513551737851E-21
(PID.TID 0000.0001) %MON vort_p_sd                    =   8.4202189509969E-05
(PID.TID 0000.0001) %MON surfExpan_theta_mean         =   0.0000000000000E+00
(PID.TID 0000.0001) %MON surfExpan_salt_mean          =   0.0000000000000E+00
(PID.TID 0000.0001) %MON surfExpan_Heat_mean          =   0.0000000000000E+00
(PID.TID 0000.0001) %MON En_Budget_T2PE_mean          =   0.0000000000000E+00
(PID.TID 0000.0001) // =======================================================
(PID.TID 0000.0001) // End MONITOR dynamic field statistics
(PID.TID 0000.0001) // =======================================================
(PID.TID 0000.0001)   Exporting atmospheric fluxes at iter.         0
(PID.TID 0000.0001)   Importing oceanic fields at iteration         0
(PID.TID 0000.0001) SURFACE_FLUX_INIT: opening data.atm_gray
(PID.TID 0000.0001)  OPEN_COPY_DATA_FILE: opening file data.atm_gray
(PID.TID 0000.0001) // =======================================================
(PID.TID 0000.0001) // Parameter file "data.atm_gray"
(PID.TID 0000.0001) // =======================================================
(PID.TID 0000.0001) >
(PID.TID 0000.0001) > &atmosphere_nml
(PID.TID 0000.0001) >    turb = .TRUE.,
(PID.TID 0000.0001) >    ldry_convection = .false.,
(PID.TID 0000.0001) >    lwet_convection = .TRUE.,
(PID.TID 0000.0001) >    do_virtual = .false.,
(PID.TID 0000.0001) >    two_stream = .true.,
(PID.TID 0000.0001) >    mixed_layer_bc = .false.,
(PID.TID 0000.0001) >    roughness_heat = 0.05,
(PID.TID 0000.0001) >    roughness_moist = 0.05,
(PID.TID 0000.0001) >    roughness_mom = 0.05,
(PID.TID 0000.0001) > /
(PID.TID 0000.0001) >
(PID.TID 0000.0001) > &radiation_nml
(PID.TID 0000.0001) >  solar_constant= 1365.,
(PID.TID 0000.0001) >  del_sol=1.,
(PID.TID 0000.0001) ># ir_tau_eq=
(PID.TID 0000.0001) ># ir_tau_pole=
(PID.TID 0000.0001) >  atm_abs= 0.22,
(PID.TID 0000.0001) ># value that Ruth is using as default:
(PID.TID 0000.0001) ># atm_abs= 0.2486,
(PID.TID 0000.0001) ># sw_diff=
(PID.TID 0000.0001) ># linear_tau=
(PID.TID 0000.0001) ># del_sw=
(PID.TID 0000.0001) >  albedo_value=0.38,
(PID.TID 0000.0001) ># window=
(PID.TID 0000.0001) ># wv_exponent=
(PID.TID 0000.0001) ># solar_exponent=
(PID.TID 0000.0001) >  wv_exponent=0.,
(PID.TID 0000.0001) > /
(PID.TID 0000.0001) >
(PID.TID 0000.0001) > &lscale_cond_nml
(PID.TID 0000.0001) ># hc =
(PID.TID 0000.0001) ># do_evap=
(PID.TID 0000.0001) > /
(PID.TID 0000.0001) >
(PID.TID 0000.0001) > &dargan_bettsmiller_nml
(PID.TID 0000.0001) >#-- default:
(PID.TID 0000.0001) >#   tau_bm = 7200.,
(PID.TID 0000.0001) >#   rhbm   = 0.8,
(PID.TID 0000.0001) >#   do_virtual   = .FALSE.,
(PID.TID 0000.0001) >#   do_shallower = .FALSE.,
(PID.TID 0000.0001) >#   do_changeqref= .FALSE.,
(PID.TID 0000.0001) >#   do_envsat    = .FALSE.,
(PID.TID 0000.0001) >#   do_taucape   = .FALSE.,
(PID.TID 0000.0001) >#     capetaubm  = 900.,
(PID.TID 0000.0001) >#     tau_min    = 2400.,
(PID.TID 0000.0001) >#   do_bm_shift  = .FALSE.,
(PID.TID 0000.0001) >#-- POG choice:
(PID.TID 0000.0001) >#  rhbm = 0.7,
(PID.TID 0000.0001) >   do_virtual= .TRUE.,
(PID.TID 0000.0001) >   do_shallower= .TRUE.,
(PID.TID 0000.0001) > /
(PID.TID 0000.0001) >
(PID.TID 0000.0001) > &surface_flux_nml
(PID.TID 0000.0001) > /
(PID.TID 0000.0001) >
(PID.TID 0000.0001) > &vert_turb_driver_nml
(PID.TID 0000.0001) >#  do_shallow_conv, do_mellor_yamada,
(PID.TID 0000.0001) >#  gust_scheme, constant_gust, use_tau,
(PID.TID 0000.0001) >#  do_molecular_diffusion
(PID.TID 0000.0001) >  do_mellor_yamada=.FALSE.,
(PID.TID 0000.0001) > /
(PID.TID 0000.0001) >
(PID.TID 0000.0001) > &diffusivity_nml
(PID.TID 0000.0001) >#  fixed_depth, depth_0, frac_inner,
(PID.TID 0000.0001) >#  rich_crit_pbl, entr_ratio, parcel_buoy,
(PID.TID 0000.0001) >#  znom, free_atm_diff, free_atm_skyhi_diff,
(PID.TID 0000.0001) >#  pbl_mcm, rich_crit_diff, mix_len, rich_prandtl,
(PID.TID 0000.0001) >#  background_m, background_t, ampns, ampns_max,
(PID.TID 0000.0001) >#  do_virtual_non_mcm
(PID.TID 0000.0001) > /
(PID.TID 0000.0001) >
(PID.TID 0000.0001) > &monin_obukhov_nml
(PID.TID 0000.0001) > /
(PID.TID 0000.0001) >
(PID.TID 0000.0001) > &my25_turb_nml
(PID.TID 0000.0001) > /
(PID.TID 0000.0001) >
(PID.TID 0000.0001) > &shallow_conv_nml
(PID.TID 0000.0001) > /
(PID.TID 0000.0001) >
(PID.TID 0000.0001) > &mixed_layer_nml
(PID.TID 0000.0001) ># evaporation, qflux_amp, depth, qflux_width
(PID.TID 0000.0001) >  depth=5000.,
(PID.TID 0000.0001) > /
(PID.TID 0000.0001) 
(PID.TID 0000.0001) SURFACE_FLUX_INIT: finished reading data.atm_gray
(PID.TID 0000.0001) MONIN_OBUKHOV_INIT: opening data.atm_gray
(PID.TID 0000.0001)  OPEN_COPY_DATA_FILE: opening file data.atm_gray
(PID.TID 0000.0001) // =======================================================
(PID.TID 0000.0001) // Parameter file "data.atm_gray"
(PID.TID 0000.0001) // =======================================================
(PID.TID 0000.0001) >
(PID.TID 0000.0001) > &atmosphere_nml
(PID.TID 0000.0001) >    turb = .TRUE.,
(PID.TID 0000.0001) >    ldry_convection = .false.,
(PID.TID 0000.0001) >    lwet_convection = .TRUE.,
(PID.TID 0000.0001) >    do_virtual = .false.,
(PID.TID 0000.0001) >    two_stream = .true.,
(PID.TID 0000.0001) >    mixed_layer_bc = .false.,
(PID.TID 0000.0001) >    roughness_heat = 0.05,
(PID.TID 0000.0001) >    roughness_moist = 0.05,
(PID.TID 0000.0001) >    roughness_mom = 0.05,
(PID.TID 0000.0001) > /
(PID.TID 0000.0001) >
(PID.TID 0000.0001) > &radiation_nml
(PID.TID 0000.0001) >  solar_constant= 1365.,
(PID.TID 0000.0001) >  del_sol=1.,
(PID.TID 0000.0001) ># ir_tau_eq=
(PID.TID 0000.0001) ># ir_tau_pole=
(PID.TID 0000.0001) >  atm_abs= 0.22,
(PID.TID 0000.0001) ># value that Ruth is using as default:
(PID.TID 0000.0001) ># atm_abs= 0.2486,
(PID.TID 0000.0001) ># sw_diff=
(PID.TID 0000.0001) ># linear_tau=
(PID.TID 0000.0001) ># del_sw=
(PID.TID 0000.0001) >  albedo_value=0.38,
(PID.TID 0000.0001) ># window=
(PID.TID 0000.0001) ># wv_exponent=
(PID.TID 0000.0001) ># solar_exponent=
(PID.TID 0000.0001) >  wv_exponent=0.,
(PID.TID 0000.0001) > /
(PID.TID 0000.0001) >
(PID.TID 0000.0001) > &lscale_cond_nml
(PID.TID 0000.0001) ># hc =
(PID.TID 0000.0001) ># do_evap=
(PID.TID 0000.0001) > /
(PID.TID 0000.0001) >
(PID.TID 0000.0001) > &dargan_bettsmiller_nml
(PID.TID 0000.0001) >#-- default:
(PID.TID 0000.0001) >#   tau_bm = 7200.,
(PID.TID 0000.0001) >#   rhbm   = 0.8,
(PID.TID 0000.0001) >#   do_virtual   = .FALSE.,
(PID.TID 0000.0001) >#   do_shallower = .FALSE.,
(PID.TID 0000.0001) >#   do_changeqref= .FALSE.,
(PID.TID 0000.0001) >#   do_envsat    = .FALSE.,
(PID.TID 0000.0001) >#   do_taucape   = .FALSE.,
(PID.TID 0000.0001) >#     capetaubm  = 900.,
(PID.TID 0000.0001) >#     tau_min    = 2400.,
(PID.TID 0000.0001) >#   do_bm_shift  = .FALSE.,
(PID.TID 0000.0001) >#-- POG choice:
(PID.TID 0000.0001) >#  rhbm = 0.7,
(PID.TID 0000.0001) >   do_virtual= .TRUE.,
(PID.TID 0000.0001) >   do_shallower= .TRUE.,
(PID.TID 0000.0001) > /
(PID.TID 0000.0001) >
(PID.TID 0000.0001) > &surface_flux_nml
(PID.TID 0000.0001) > /
(PID.TID 0000.0001) >
(PID.TID 0000.0001) > &vert_turb_driver_nml
(PID.TID 0000.0001) >#  do_shallow_conv, do_mellor_yamada,
(PID.TID 0000.0001) >#  gust_scheme, constant_gust, use_tau,
(PID.TID 0000.0001) >#  do_molecular_diffusion
(PID.TID 0000.0001) >  do_mellor_yamada=.FALSE.,
(PID.TID 0000.0001) > /
(PID.TID 0000.0001) >
(PID.TID 0000.0001) > &diffusivity_nml
(PID.TID 0000.0001) >#  fixed_depth, depth_0, frac_inner,
(PID.TID 0000.0001) >#  rich_crit_pbl, entr_ratio, parcel_buoy,
(PID.TID 0000.0001) >#  znom, free_atm_diff, free_atm_skyhi_diff,
(PID.TID 0000.0001) >#  pbl_mcm, rich_crit_diff, mix_len, rich_prandtl,
(PID.TID 0000.0001) >#  background_m, background_t, ampns, ampns_max,
(PID.TID 0000.0001) >#  do_virtual_non_mcm
(PID.TID 0000.0001) > /
(PID.TID 0000.0001) >
(PID.TID 0000.0001) > &monin_obukhov_nml
(PID.TID 0000.0001) > /
(PID.TID 0000.0001) >
(PID.TID 0000.0001) > &my25_turb_nml
(PID.TID 0000.0001) > /
(PID.TID 0000.0001) >
(PID.TID 0000.0001) > &shallow_conv_nml
(PID.TID 0000.0001) > /
(PID.TID 0000.0001) >
(PID.TID 0000.0001) > &mixed_layer_nml
(PID.TID 0000.0001) ># evaporation, qflux_amp, depth, qflux_width
(PID.TID 0000.0001) >  depth=5000.,
(PID.TID 0000.0001) > /
(PID.TID 0000.0001) 
(PID.TID 0000.0001) MONIN_OBUKHOV_INIT: finished reading data.atm_gray
(PID.TID 0000.0001) DIFFUSIVITY_INIT: opening data.atm_gray
(PID.TID 0000.0001)  OPEN_COPY_DATA_FILE: opening file data.atm_gray
(PID.TID 0000.0001) // =======================================================
(PID.TID 0000.0001) // Parameter file "data.atm_gray"
(PID.TID 0000.0001) // =======================================================
(PID.TID 0000.0001) >
(PID.TID 0000.0001) > &atmosphere_nml
(PID.TID 0000.0001) >    turb = .TRUE.,
(PID.TID 0000.0001) >    ldry_convection = .false.,
(PID.TID 0000.0001) >    lwet_convection = .TRUE.,
(PID.TID 0000.0001) >    do_virtual = .false.,
(PID.TID 0000.0001) >    two_stream = .true.,
(PID.TID 0000.0001) >    mixed_layer_bc = .false.,
(PID.TID 0000.0001) >    roughness_heat = 0.05,
(PID.TID 0000.0001) >    roughness_moist = 0.05,
(PID.TID 0000.0001) >    roughness_mom = 0.05,
(PID.TID 0000.0001) > /
(PID.TID 0000.0001) >
(PID.TID 0000.0001) > &radiation_nml
(PID.TID 0000.0001) >  solar_constant= 1365.,
(PID.TID 0000.0001) >  del_sol=1.,
(PID.TID 0000.0001) ># ir_tau_eq=
(PID.TID 0000.0001) ># ir_tau_pole=
(PID.TID 0000.0001) >  atm_abs= 0.22,
(PID.TID 0000.0001) ># value that Ruth is using as default:
(PID.TID 0000.0001) ># atm_abs= 0.2486,
(PID.TID 0000.0001) ># sw_diff=
(PID.TID 0000.0001) ># linear_tau=
(PID.TID 0000.0001) ># del_sw=
(PID.TID 0000.0001) >  albedo_value=0.38,
(PID.TID 0000.0001) ># window=
(PID.TID 0000.0001) ># wv_exponent=
(PID.TID 0000.0001) ># solar_exponent=
(PID.TID 0000.0001) >  wv_exponent=0.,
(PID.TID 0000.0001) > /
(PID.TID 0000.0001) >
(PID.TID 0000.0001) > &lscale_cond_nml
(PID.TID 0000.0001) ># hc =
(PID.TID 0000.0001) ># do_evap=
(PID.TID 0000.0001) > /
(PID.TID 0000.0001) >
(PID.TID 0000.0001) > &dargan_bettsmiller_nml
(PID.TID 0000.0001) >#-- default:
(PID.TID 0000.0001) >#   tau_bm = 7200.,
(PID.TID 0000.0001) >#   rhbm   = 0.8,
(PID.TID 0000.0001) >#   do_virtual   = .FALSE.,
(PID.TID 0000.0001) >#   do_shallower = .FALSE.,
(PID.TID 0000.0001) >#   do_changeqref= .FALSE.,
(PID.TID 0000.0001) >#   do_envsat    = .FALSE.,
(PID.TID 0000.0001) >#   do_taucape   = .FALSE.,
(PID.TID 0000.0001) >#     capetaubm  = 900.,
(PID.TID 0000.0001) >#     tau_min    = 2400.,
(PID.TID 0000.0001) >#   do_bm_shift  = .FALSE.,
(PID.TID 0000.0001) >#-- POG choice:
(PID.TID 0000.0001) >#  rhbm = 0.7,
(PID.TID 0000.0001) >   do_virtual= .TRUE.,
(PID.TID 0000.0001) >   do_shallower= .TRUE.,
(PID.TID 0000.0001) > /
(PID.TID 0000.0001) >
(PID.TID 0000.0001) > &surface_flux_nml
(PID.TID 0000.0001) > /
(PID.TID 0000.0001) >
(PID.TID 0000.0001) > &vert_turb_driver_nml
(PID.TID 0000.0001) >#  do_shallow_conv, do_mellor_yamada,
(PID.TID 0000.0001) >#  gust_scheme, constant_gust, use_tau,
(PID.TID 0000.0001) >#  do_molecular_diffusion
(PID.TID 0000.0001) >  do_mellor_yamada=.FALSE.,
(PID.TID 0000.0001) > /
(PID.TID 0000.0001) >
(PID.TID 0000.0001) > &diffusivity_nml
(PID.TID 0000.0001) >#  fixed_depth, depth_0, frac_inner,
(PID.TID 0000.0001) >#  rich_crit_pbl, entr_ratio, parcel_buoy,
(PID.TID 0000.0001) >#  znom, free_atm_diff, free_atm_skyhi_diff,
(PID.TID 0000.0001) >#  pbl_mcm, rich_crit_diff, mix_len, rich_prandtl,
(PID.TID 0000.0001) >#  background_m, background_t, ampns, ampns_max,
(PID.TID 0000.0001) >#  do_virtual_non_mcm
(PID.TID 0000.0001) > /
(PID.TID 0000.0001) >
(PID.TID 0000.0001) > &monin_obukhov_nml
(PID.TID 0000.0001) > /
(PID.TID 0000.0001) >
(PID.TID 0000.0001) > &my25_turb_nml
(PID.TID 0000.0001) > /
(PID.TID 0000.0001) >
(PID.TID 0000.0001) > &shallow_conv_nml
(PID.TID 0000.0001) > /
(PID.TID 0000.0001) >
(PID.TID 0000.0001) > &mixed_layer_nml
(PID.TID 0000.0001) ># evaporation, qflux_amp, depth, qflux_width
(PID.TID 0000.0001) >  depth=5000.,
(PID.TID 0000.0001) > /
(PID.TID 0000.0001) 
(PID.TID 0000.0001) DIFFUSIVITY_INIT: finished reading data.atm_gray
(PID.TID 0000.0001) SOLVE_FOR_PRESSURE: putPmEinXvector =    F
 cg2d: Sum(rhs),rhsMax =   2.98314262181520E-10  1.15643245709385E+02
(PID.TID 0000.0001)      cg2d_init_res =   3.76284312959005E+03
(PID.TID 0000.0001)      cg2d_iters(min,last) =      -1      12
(PID.TID 0000.0001)      cg2d_last_res =   5.53427932930136E-11
(PID.TID 0000.0001) // =======================================================
(PID.TID 0000.0001) // Begin MONITOR dynamic field statistics
(PID.TID 0000.0001) // =======================================================
(PID.TID 0000.0001) %MON time_tsnumber                =                     1
(PID.TID 0000.0001) %MON time_secondsf                =   3.6000000000000E+02
(PID.TID 0000.0001) %MON dynstat_eta_max              =   1.4279177601168E+01
(PID.TID 0000.0001) %MON dynstat_eta_min              =  -8.7978186035698E+00
(PID.TID 0000.0001) %MON dynstat_eta_mean             =   2.6778371680327E-15
(PID.TID 0000.0001) %MON dynstat_eta_sd               =   7.0826410630125E+00
(PID.TID 0000.0001) %MON dynstat_eta_del2             =   3.6116162885768E-02
(PID.TID 0000.0001) %MON dynstat_uvel_max             =   1.3016800146121E+00
(PID.TID 0000.0001) %MON dynstat_uvel_min             =  -1.3016800146121E+00
(PID.TID 0000.0001) %MON dynstat_uvel_mean            =   0.0000000000000E+00
(PID.TID 0000.0001) %MON dynstat_uvel_sd              =   4.2127420517919E-01
(PID.TID 0000.0001) %MON dynstat_uvel_del2            =   1.0799549628826E-04
(PID.TID 0000.0001) %MON dynstat_vvel_max             =   1.3016800146121E+00
(PID.TID 0000.0001) %MON dynstat_vvel_min             =  -1.3016800146121E+00
(PID.TID 0000.0001) %MON dynstat_vvel_mean            =  -2.5104723450307E-18
(PID.TID 0000.0001) %MON dynstat_vvel_sd              =   4.2127420517919E-01
(PID.TID 0000.0001) %MON dynstat_vvel_del2            =   1.0799549628826E-04
(PID.TID 0000.0001) %MON dynstat_wvel_max             =   1.7170597841977E-02
(PID.TID 0000.0001) %MON dynstat_wvel_min             =  -1.4115125359213E-02
(PID.TID 0000.0001) %MON dynstat_wvel_mean            =   4.3242579828442E-18
(PID.TID 0000.0001) %MON dynstat_wvel_sd              =   4.2423217473424E-03
(PID.TID 0000.0001) %MON dynstat_wvel_del2            =   8.6997822494988E-06
(PID.TID 0000.0001) %MON dynstat_theta_max            =   1.1536174751748E+03
(PID.TID 0000.0001) %MON dynstat_theta_min            =   2.5512158697064E+02
(PID.TID 0000.0001) %MON dynstat_theta_mean           =   3.2787649869510E+02
(PID.TID 0000.0001) %MON dynstat_theta_sd             =   9.0371929689496E+01
(PID.TID 0000.0001) %MON dynstat_theta_del2           =   5.5170144990691E-04
(PID.TID 0000.0001) %MON dynstat_salt_max             =   2.0315407882425E-02
(PID.TID 0000.0001) %MON dynstat_salt_min             =   0.0000000000000E+00
(PID.TID 0000.0001) %MON dynstat_salt_mean            =   1.7995564712878E-03
(PID.TID 0000.0001) %MON dynstat_salt_sd              =   3.8012117985114E-03
(PID.TID 0000.0001) %MON dynstat_salt_del2            =   1.5474848653738E-07
(PID.TID 0000.0001) %MON advcfl_uvel_max              =   3.4356045491987E-03
(PID.TID 0000.0001) %MON advcfl_vvel_max              =   3.4356045491987E-03
(PID.TID 0000.0001) %MON advcfl_wvel_max              =   1.2513369344864E-03
(PID.TID 0000.0001) %MON advcfl_W_hf_max              =   1.3788457929456E-03
(PID.TID 0000.0001) %MON am_eta_mean                  =   0.0000000000000E+00
(PID.TID 0000.0001) %MON am_uZo_mean                  =   3.6777087767332E-08
(PID.TID 0000.0001) %MON am_tot_mean                  =   3.6777087767332E-08
(PID.TID 0000.0001) %MON pe_b_mean                    =   2.1245751682931E-04
(PID.TID 0000.0001) %MON ke_max                       =   8.5367290608323E-01
(PID.TID 0000.0001) %MON ke_mean                      =   1.7747195594936E-01
(PID.TID 0000.0001) %MON ke_vol                       =   5.0986421042785E+19
(PID.TID 0000.0001) %MON vort_r_min                   =  -3.1534869439159E-08
(PID.TID 0000.0001) %MON vort_r_max                   =   3.1534869439159E-08
(PID.TID 0000.0001) %MON vort_a_mean                  =   7.3540655213554E-21
(PID.TID 0000.0001) %MON vort_a_sd                    =   8.4202189512624E-05
(PID.TID 0000.0001) %MON vort_p_mean                  =   7.3540655213554E-21
(PID.TID 0000.0001) %MON vort_p_sd                    =   8.4202189512624E-05
(PID.TID 0000.0001) %MON surfExpan_theta_mean         =  -2.8165735680238E-01
(PID.TID 0000.0001) %MON surfExpan_salt_mean          =  -2.6045821456329E-05
(PID.TID 0000.0001) %MON surfExpan_Heat_mean          =  -2.4699565182482E+01
(PID.TID 0000.0001) %MON En_Budget_T2PE_mean          =   2.8651877224985E+00
(PID.TID 0000.0001) // =======================================================
(PID.TID 0000.0001) // End MONITOR dynamic field statistics
(PID.TID 0000.0001) // =======================================================
 cg2d: Sum(rhs),rhsMax =   1.16415321826935E-10  3.16093281666974E+02
(PID.TID 0000.0001)      cg2d_init_res =   7.45864502312177E+03
(PID.TID 0000.0001)      cg2d_iters(min,last) =      -1      12
(PID.TID 0000.0001)      cg2d_last_res =   8.44300210172447E-11
(PID.TID 0000.0001) // =======================================================
(PID.TID 0000.0001) // Begin MONITOR dynamic field statistics
(PID.TID 0000.0001) // =======================================================
(PID.TID 0000.0001) %MON time_tsnumber                =                     2
(PID.TID 0000.0001) %MON time_secondsf                =   7.2000000000000E+02
(PID.TID 0000.0001) %MON dynstat_eta_max              =   4.0724129888878E+01
(PID.TID 0000.0001) %MON dynstat_eta_min              =  -2.6346269913214E+01
(PID.TID 0000.0001) %MON dynstat_eta_mean             =  -2.0083778760245E-15
(PID.TID 0000.0001) %MON dynstat_eta_sd               =   2.1157392870872E+01
(PID.TID 0000.0001) %MON dynstat_eta_del2             =   8.1656059628844E-02
(PID.TID 0000.0001) %MON dynstat_uvel_max             =   2.5956720027694E+00
(PID.TID 0000.0001) %MON dynstat_uvel_min             =  -2.5959211692849E+00
(PID.TID 0000.0001) %MON dynstat_uvel_mean            =   5.0956700626900E-03
(PID.TID 0000.0001) %MON dynstat_uvel_sd              =   8.4124307293720E-01
(PID.TID 0000.0001) %MON dynstat_uvel_del2            =   2.0793525952983E-04
(PID.TID 0000.0001) %MON dynstat_vvel_max             =   2.5959021462821E+00
(PID.TID 0000.0001) %MON dynstat_vvel_min             =  -2.5958098455545E+00
(PID.TID 0000.0001) %MON dynstat_vvel_mean            =   5.1066445809730E-03
(PID.TID 0000.0001) %MON dynstat_vvel_sd              =   8.4124399748548E-01
(PID.TID 0000.0001) %MON dynstat_vvel_del2            =   2.0795928439627E-04
(PID.TID 0000.0001) %MON dynstat_wvel_max             =   3.2825078707848E-02
(PID.TID 0000.0001) %MON dynstat_wvel_min             =  -2.7087307162814E-02
(PID.TID 0000.0001) %MON dynstat_wvel_mean            =   6.4470755380587E-18
(PID.TID 0000.0001) %MON dynstat_wvel_sd              =   8.4287631370582E-03
(PID.TID 0000.0001) %MON dynstat_wvel_del2            =   1.5680367074829E-05
(PID.TID 0000.0001) %MON dynstat_theta_max            =   1.1536895570513E+03
(PID.TID 0000.0001) %MON dynstat_theta_min            =   2.5520016744417E+02
(PID.TID 0000.0001) %MON dynstat_theta_mean           =   3.2787698786663E+02
(PID.TID 0000.0001) %MON dynstat_theta_sd             =   9.0372402354779E+01
(PID.TID 0000.0001) %MON dynstat_theta_del2           =   5.5370838817003E-04
(PID.TID 0000.0001) %MON dynstat_salt_max             =   2.0315653708318E-02
(PID.TID 0000.0001) %MON dynstat_salt_min             =   0.0000000000000E+00
(PID.TID 0000.0001) %MON dynstat_salt_mean            =   1.8036502170035E-03
(PID.TID 0000.0001) %MON dynstat_salt_sd              =   3.8037418283536E-03
(PID.TID 0000.0001) %MON dynstat_salt_del2            =   1.8257028393061E-07
(PID.TID 0000.0001) %MON advcfl_uvel_max              =   7.1387240528097E-03
(PID.TID 0000.0001) %MON advcfl_vvel_max              =   7.1386579995953E-03
(PID.TID 0000.0001) %MON advcfl_wvel_max              =   2.2607833102470E-03
(PID.TID 0000.0001) %MON advcfl_W_hf_max              =   2.4909972691172E-03
(PID.TID 0000.0001) %MON am_eta_mean                  =  -6.2347056404663E+08
(PID.TID 0000.0001) %MON am_uZo_mean                  =   6.2373480999266E+08
(PID.TID 0000.0001) %MON am_tot_mean                  =   2.6424594603264E+05
(PID.TID 0000.0001) %MON pe_b_mean                    =   1.8958585707735E-03
(PID.TID 0000.0001) %MON ke_max                       =   3.4111002659527E+00
(PID.TID 0000.0001) %MON ke_mean                      =   7.0771670737121E-01
(PID.TID 0000.0001) %MON ke_vol                       =   5.0986421042785E+19
(PID.TID 0000.0001) %MON vort_r_min                   =  -1.0859314497231E-07
(PID.TID 0000.0001) %MON vort_r_max                   =   1.0859337137349E-07
(PID.TID 0000.0001) %MON vort_a_mean                  =  -2.0346247942417E-19
(PID.TID 0000.0001) %MON vort_a_sd                    =   8.4206364615974E-05
(PID.TID 0000.0001) %MON vort_p_mean                  =  -2.0346247867463E-19
(PID.TID 0000.0001) %MON vort_p_sd                    =   8.4203755438730E-05
(PID.TID 0000.0001) %MON surfExpan_theta_mean         =  -5.6147254828798E-01
(PID.TID 0000.0001) %MON surfExpan_salt_mean          =  -5.1879055747172E-05
(PID.TID 0000.0001) %MON surfExpan_Heat_mean          =  -4.9240154911821E+01
(PID.TID 0000.0001) %MON En_Budget_T2PE_mean          =   5.7209740481819E+00
(PID.TID 0000.0001) // =======================================================
(PID.TID 0000.0001) // End MONITOR dynamic field statistics
(PID.TID 0000.0001) // =======================================================
 cg2d: Sum(rhs),rhsMax =   2.91038304567337E-10  6.03396030730857E+02
(PID.TID 0000.0001)      cg2d_init_res =   1.11045110300016E+04
(PID.TID 0000.0001)      cg2d_iters(min,last) =      -1      12
(PID.TID 0000.0001)      cg2d_last_res =   9.62514430656098E-11
(PID.TID 0000.0001) // =======================================================
(PID.TID 0000.0001) // Begin MONITOR dynamic field statistics
(PID.TID 0000.0001) // =======================================================
(PID.TID 0000.0001) %MON time_tsnumber                =                     3
(PID.TID 0000.0001) %MON time_secondsf                =   1.0800000000000E+03
(PID.TID 0000.0001) %MON dynstat_eta_max              =   7.7549564727472E+01
(PID.TID 0000.0001) %MON dynstat_eta_min              =  -5.2570709274362E+01
(PID.TID 0000.0001) %MON dynstat_eta_mean             =  -6.6945929200818E-15
(PID.TID 0000.0001) %MON dynstat_eta_sd               =   4.2127123163088E+01
(PID.TID 0000.0001) %MON dynstat_eta_del2             =   1.2211984063341E-01
(PID.TID 0000.0001) %MON dynstat_uvel_max             =   3.8770049964974E+00
(PID.TID 0000.0001) %MON dynstat_uvel_min             =  -3.8776502541770E+00
(PID.TID 0000.0001) %MON dynstat_uvel_mean            =   1.3345883440442E-02
(PID.TID 0000.0001) %MON dynstat_uvel_sd              =   1.2585799870025E+00
(PID.TID 0000.0001) %MON dynstat_uvel_del2            =   2.9875307004169E-04
(PID.TID 0000.0001) %MON dynstat_vvel_max             =   3.8776194706586E+00
(PID.TID 0000.0001) %MON dynstat_vvel_min             =  -3.8773719895199E+00
(PID.TID 0000.0001) %MON dynstat_vvel_mean            =   1.3378523951677E-02
(PID.TID 0000.0001) %MON dynstat_vvel_sd              =   1.2585830724846E+00
(PID.TID 0000.0001) %MON dynstat_vvel_del2            =   2.9880449085673E-04
(PID.TID 0000.0001) %MON dynstat_wvel_max             =   4.6241465709724E-02
(PID.TID 0000.0001) %MON dynstat_wvel_min             =  -3.9080522697051E-02
(PID.TID 0000.0001) %MON dynstat_wvel_mean            =   1.1950676607133E-17
(PID.TID 0000.0001) %MON dynstat_wvel_sd              =   1.2525086437691E-02
(PID.TID 0000.0001) %MON dynstat_wvel_del2            =   2.0697139654375E-05
(PID.TID 0000.0001) %MON dynstat_theta_max            =   1.1537735928474E+03
(PID.TID 0000.0001) %MON dynstat_theta_min            =   2.5532953136363E+02
(PID.TID 0000.0001) %MON dynstat_theta_mean           =   3.2787821785767E+02
(PID.TID 0000.0001) %MON dynstat_theta_sd             =   9.0372303519835E+01
(PID.TID 0000.0001) %MON dynstat_theta_del2           =   5.5741413977941E-04
(PID.TID 0000.0001) %MON dynstat_salt_max             =   2.0315899747978E-02
(PID.TID 0000.0001) %MON dynstat_salt_min             =   0.0000000000000E+00
(PID.TID 0000.0001) %MON dynstat_salt_mean            =   1.8074292102538E-03
(PID.TID 0000.0001) %MON dynstat_salt_sd              =   3.8063231132049E-03
(PID.TID 0000.0001) %MON dynstat_salt_del2            =   2.1608429263102E-07
(PID.TID 0000.0001) %MON advcfl_uvel_max              =   1.0778629466850E-02
(PID.TID 0000.0001) %MON advcfl_vvel_max              =   1.0778484852274E-02
(PID.TID 0000.0001) %MON advcfl_wvel_max              =   2.9369909780838E-03
(PID.TID 0000.0001) %MON advcfl_W_hf_max              =   3.2357694573199E-03
(PID.TID 0000.0001) %MON am_eta_mean                  =  -1.8676330393047E+09
(PID.TID 0000.0001) %MON am_uZo_mean                  =   1.8681217196293E+09
(PID.TID 0000.0001) %MON am_tot_mean                  =   4.8868032462740E+05
(PID.TID 0000.0001) %MON pe_b_mean                    =   7.5163196288296E-03
(PID.TID 0000.0001) %MON ke_max                       =   7.6235425144036E+00
(PID.TID 0000.0001) %MON ke_mean                      =   1.5842060157680E+00
(PID.TID 0000.0001) %MON ke_vol                       =   5.0986421042785E+19
(PID.TID 0000.0001) %MON vort_r_min                   =  -2.2127182349298E-07
(PID.TID 0000.0001) %MON vort_r_max                   =   2.2134900064108E-07
(PID.TID 0000.0001) %MON vort_a_mean                  =  -8.8248786256265E-20
(PID.TID 0000.0001) %MON vort_a_sd                    =   8.4213132665174E-05
(PID.TID 0000.0001) %MON vort_p_mean                  =  -8.8248785217917E-20
(PID.TID 0000.0001) %MON vort_p_sd                    =   8.4205314881281E-05
(PID.TID 0000.0001) %MON surfExpan_theta_mean         =  -8.3798981494296E-01
(PID.TID 0000.0001) %MON surfExpan_salt_mean          =  -7.7425145462562E-05
(PID.TID 0000.0001) %MON surfExpan_Heat_mean          =  -7.3497547860083E+01
(PID.TID 0000.0001) %MON En_Budget_T2PE_mean          =   8.5557223769945E+00
(PID.TID 0000.0001) // =======================================================
(PID.TID 0000.0001) // End MONITOR dynamic field statistics
(PID.TID 0000.0001) // =======================================================
 cg2d: Sum(rhs),rhsMax =  -2.32830643653870E-09  9.99725350002633E+02
(PID.TID 0000.0001)      cg2d_init_res =   1.47093720613001E+04
(PID.TID 0000.0001)      cg2d_iters(min,last) =      -1      12
(PID.TID 0000.0001)      cg2d_last_res =   1.04492402954276E-10
(PID.TID 0000.0001) // =======================================================
(PID.TID 0000.0001) // Begin MONITOR dynamic field statistics
(PID.TID 0000.0001) // =======================================================
(PID.TID 0000.0001) %MON time_tsnumber                =                     4
(PID.TID 0000.0001) %MON time_secondsf                =   1.4400000000000E+03
(PID.TID 0000.0001) %MON dynstat_eta_max              =   1.2459282115373E+02
(PID.TID 0000.0001) %MON dynstat_eta_min              =  -8.7371026403030E+01
(PID.TID 0000.0001) %MON dynstat_eta_mean             =  -4.0167557520491E-14
(PID.TID 0000.0001) %MON dynstat_eta_sd               =   6.9902947623872E+01
(PID.TID 0000.0001) %MON dynstat_eta_del2             =   1.5459703957307E-01
(PID.TID 0000.0001) %MON dynstat_uvel_max             =   5.1470370616626E+00
(PID.TID 0000.0001) %MON dynstat_uvel_min             =  -5.1483612339409E+00
(PID.TID 0000.0001) %MON dynstat_uvel_mean            =   2.4710713189559E-02
(PID.TID 0000.0001) %MON dynstat_uvel_sd              =   1.6727064210319E+00
(PID.TID 0000.0001) %MON dynstat_uvel_del2            =   3.8345864340449E-04
(PID.TID 0000.0001) %MON dynstat_vvel_max             =   5.1483360599380E+00
(PID.TID 0000.0001) %MON dynstat_vvel_min             =  -5.1478289511169E+00
(PID.TID 0000.0001) %MON dynstat_vvel_mean            =   2.4775782809924E-02
(PID.TID 0000.0001) %MON dynstat_vvel_sd              =   1.6727130864967E+00
(PID.TID 0000.0001) %MON dynstat_vvel_del2            =   3.8353024999021E-04
(PID.TID 0000.0001) %MON dynstat_wvel_max             =   5.7666620765969E-02
(PID.TID 0000.0001) %MON dynstat_wvel_min             =  -5.2726704358428E-02
(PID.TID 0000.0001) %MON dynstat_wvel_mean            =   8.1767787311963E-18
(PID.TID 0000.0001) %MON dynstat_wvel_sd              =   1.6542903736291E-02
(PID.TID 0000.0001) %MON dynstat_wvel_del2            =   2.4606070754387E-05
(PID.TID 0000.0001) %MON dynstat_theta_max            =   1.1538233011636E+03
(PID.TID 0000.0001) %MON dynstat_theta_min            =   2.5545729648592E+02
(PID.TID 0000.0001) %MON dynstat_theta_mean           =   3.2787985971863E+02
(PID.TID 0000.0001) %MON dynstat_theta_sd             =   9.0371908892299E+01
(PID.TID 0000.0001) %MON dynstat_theta_del2           =   5.6018322001371E-04
(PID.TID 0000.0001) %MON dynstat_salt_max             =   2.0316146073030E-02
(PID.TID 0000.0001) %MON dynstat_salt_min             =   0.0000000000000E+00
(PID.TID 0000.0001) %MON dynstat_salt_mean            =   1.8110070461520E-03
(PID.TID 0000.0001) %MON dynstat_salt_sd              =   3.8089338468889E-03
(PID.TID 0000.0001) %MON dynstat_salt_del2            =   2.5267435245432E-07
(PID.TID 0000.0001) %MON advcfl_uvel_max              =   1.4418293708335E-02
(PID.TID 0000.0001) %MON advcfl_vvel_max              =   1.4417807314286E-02
(PID.TID 0000.0001) %MON advcfl_wvel_max              =   3.4896064394164E-03
(PID.TID 0000.0001) %MON advcfl_W_hf_max              =   3.8421748016170E-03
(PID.TID 0000.0001) %MON am_eta_mean                  =  -3.7268395747792E+09
(PID.TID 0000.0001) %MON am_uZo_mean                  =   3.7273350193954E+09
(PID.TID 0000.0001) %MON am_tot_mean                  =   4.9544461622095E+05
(PID.TID 0000.0001) %MON pe_b_mean                    =   2.0695342279710E-02
(PID.TID 0000.0001) %MON ke_max                       =   1.3430814764017E+01
(PID.TID 0000.0001) %MON ke_mean                      =   2.7985701497295E+00
(PID.TID 0000.0001) %MON ke_vol                       =   5.0986421042785E+19
(PID.TID 0000.0001) %MON vort_r_min                   =  -3.6775049223793E-07
(PID.TID 0000.0001) %MON vort_r_max                   =   3.6797423185615E-07
(PID.TID 0000.0001) %MON vort_a_mean                  =  -1.7894892768632E-19
(PID.TID 0000.0001) %MON vort_a_sd                    =   8.4222466547593E-05
(PID.TID 0000.0001) %MON vort_p_mean                  =  -1.7894892324532E-19
(PID.TID 0000.0001) %MON vort_p_sd                    =   8.4206861510654E-05
(PID.TID 0000.0001) %MON surfExpan_theta_mean         =  -1.1103954318820E+00
(PID.TID 0000.0001) %MON surfExpan_salt_mean          =  -1.0263432315105E-04
(PID.TID 0000.0001) %MON surfExpan_Heat_mean          =  -9.7403578831898E+01
(PID.TID 0000.0001) %MON En_Budget_T2PE_mean          =   1.1364815104046E+01
(PID.TID 0000.0001) // =======================================================
(PID.TID 0000.0001) // End MONITOR dynamic field statistics
(PID.TID 0000.0001) // =======================================================
 cg2d: Sum(rhs),rhsMax =   1.62981450557709E-09  1.48972610421340E+03
(PID.TID 0000.0001)      cg2d_init_res =   1.82677191863596E+04
(PID.TID 0000.0001)      cg2d_iters(min,last) =      -1      12
(PID.TID 0000.0001)      cg2d_last_res =   1.29838183572174E-10
(PID.TID 0000.0001) // =======================================================
(PID.TID 0000.0001) // Begin MONITOR dynamic field statistics
(PID.TID 0000.0001) // =======================================================
(PID.TID 0000.0001) %MON time_tsnumber                =                     5
(PID.TID 0000.0001) %MON time_secondsf                =   1.8000000000000E+03
(PID.TID 0000.0001) %MON dynstat_eta_max              =   1.8566317223638E+02
(PID.TID 0000.0001) %MON dynstat_eta_min              =  -1.3062238772274E+02
(PID.TID 0000.0001) %MON dynstat_eta_mean             =   3.7489720352458E-14
(PID.TID 0000.0001) %MON dynstat_eta_sd               =   1.0439073347243E+02
(PID.TID 0000.0001) %MON dynstat_eta_del2             =   1.8085812856508E-01
(PID.TID 0000.0001) %MON dynstat_uvel_max             =   6.4056087898273E+00
(PID.TID 0000.0001) %MON dynstat_uvel_min             =  -6.4075459763803E+00
(PID.TID 0000.0001) %MON dynstat_uvel_mean            =   3.9143764471055E-02
(PID.TID 0000.0001) %MON dynstat_uvel_sd              =   2.0829325369265E+00
(PID.TID 0000.0001) %MON dynstat_uvel_del2            =   4.6567816757966E-04
(PID.TID 0000.0001) %MON dynstat_vvel_max             =   6.4075397808187E+00
(PID.TID 0000.0001) %MON dynstat_vvel_min             =  -6.4067300153244E+00
(PID.TID 0000.0001) %MON dynstat_vvel_mean            =   3.9252098588055E-02
(PID.TID 0000.0001) %MON dynstat_vvel_sd              =   2.0829442066807E+00
(PID.TID 0000.0001) %MON dynstat_vvel_del2            =   4.6576347567056E-04
(PID.TID 0000.0001) %MON dynstat_wvel_max             =   6.7958475482420E-02
(PID.TID 0000.0001) %MON dynstat_wvel_min             =  -6.6698921637480E-02
(PID.TID 0000.0001) %MON dynstat_wvel_mean            =   2.3901353214266E-17
(PID.TID 0000.0001) %MON dynstat_wvel_sd              =   2.0494995196615E-02
(PID.TID 0000.0001) %MON dynstat_wvel_del2            =   2.7802512288065E-05
(PID.TID 0000.0001) %MON dynstat_theta_max            =   1.1538738625592E+03
(PID.TID 0000.0001) %MON dynstat_theta_min            =   2.5557816077734E+02
(PID.TID 0000.0001) %MON dynstat_theta_mean           =   3.2788163756683E+02
(PID.TID 0000.0001) %MON dynstat_theta_sd             =   9.0371436646274E+01
(PID.TID 0000.0001) %MON dynstat_theta_del2           =   5.6256890526235E-04
(PID.TID 0000.0001) %MON dynstat_salt_max             =   2.0316392744158E-02
(PID.TID 0000.0001) %MON dynstat_salt_min             =   0.0000000000000E+00
(PID.TID 0000.0001) %MON dynstat_salt_mean            =   1.8144772797003E-03
(PID.TID 0000.0001) %MON dynstat_salt_sd              =   3.8115563243519E-03
(PID.TID 0000.0001) %MON dynstat_salt_del2            =   2.8985388129207E-07
(PID.TID 0000.0001) %MON advcfl_uvel_max              =   1.8074167714246E-02
(PID.TID 0000.0001) %MON advcfl_vvel_max              =   1.8073130956745E-02
(PID.TID 0000.0001) %MON advcfl_wvel_max              =   4.0425571428566E-03
(PID.TID 0000.0001) %MON advcfl_W_hf_max              =   4.4496222484670E-03
(PID.TID 0000.0001) %MON am_eta_mean                  =  -6.1939044720735E+09
(PID.TID 0000.0001) %MON am_uZo_mean                  =   6.1940155048864E+09
(PID.TID 0000.0001) %MON am_tot_mean                  =   1.1103281289387E+05
(PID.TID 0000.0001) %MON pe_b_mean                    =   4.6153594841276E-02
(PID.TID 0000.0001) %MON ke_max                       =   2.0807737962648E+01
(PID.TID 0000.0001) %MON ke_mean                      =   4.3401687415364E+00
(PID.TID 0000.0001) %MON ke_vol                       =   5.0986421042785E+19
(PID.TID 0000.0001) %MON vort_r_min                   =  -5.4726213209449E-07
(PID.TID 0000.0001) %MON vort_r_max                   =   5.4768108121476E-07
(PID.TID 0000.0001) %MON vort_a_mean                  =  -2.5248958289987E-19
(PID.TID 0000.0001) %MON vort_a_sd                    =   8.4234337729670E-05
(PID.TID 0000.0001) %MON vort_p_mean                  =  -2.5248957210305E-19
(PID.TID 0000.0001) %MON vort_p_sd                    =   8.4208393128275E-05
(PID.TID 0000.0001) %MON surfExpan_theta_mean         =  -1.3778255422933E+00
(PID.TID 0000.0001) %MON surfExpan_salt_mean          =  -1.2744204329634E-04
(PID.TID 0000.0001) %MON surfExpan_Heat_mean          =  -1.2088546867877E+02
(PID.TID 0000.0001) %MON En_Budget_T2PE_mean          =   1.4143269214500E+01
(PID.TID 0000.0001) // =======================================================
(PID.TID 0000.0001) // End MONITOR dynamic field statistics
(PID.TID 0000.0001) // =======================================================
 cg2d: Sum(rhs),rhsMax =  -1.86264514923096E-09  2.07055111560259E+03
(PID.TID 0000.0001)      cg2d_init_res =   2.17676662448625E+04
(PID.TID 0000.0001)      cg2d_iters(min,last) =      -1      13
(PID.TID 0000.0001)      cg2d_last_res =   1.51256421797765E-11
(PID.TID 0000.0001) // =======================================================
(PID.TID 0000.0001) // Begin MONITOR dynamic field statistics
(PID.TID 0000.0001) // =======================================================
(PID.TID 0000.0001) %MON time_tsnumber                =                     6
(PID.TID 0000.0001) %MON time_secondsf                =   2.1600000000000E+03
(PID.TID 0000.0001) %MON dynstat_eta_max              =   2.5805596849773E+02
(PID.TID 0000.0001) %MON dynstat_eta_min              =  -1.8217600132488E+02
(PID.TID 0000.0001) %MON dynstat_eta_mean             =   1.6067023008196E-14
(PID.TID 0000.0001) %MON dynstat_eta_sd               =   1.4548208228572E+02
(PID.TID 0000.0001) %MON dynstat_eta_del2             =   2.0463132915069E-01
(PID.TID 0000.0001) %MON dynstat_uvel_max             =   7.6511022873776E+00
(PID.TID 0000.0001) %MON dynstat_uvel_min             =  -7.6536726860324E+00
(PID.TID 0000.0001) %MON dynstat_uvel_mean            =   5.6588314242284E-02
(PID.TID 0000.0001) %MON dynstat_uvel_sd              =   2.4885945292425E+00
(PID.TID 0000.0001) %MON dynstat_uvel_del2            =   5.4591444872660E-04
(PID.TID 0000.0001) %MON dynstat_vvel_max             =   7.6537005857830E+00
(PID.TID 0000.0001) %MON dynstat_vvel_min             =  -7.6525426839809E+00
(PID.TID 0000.0001) %MON dynstat_vvel_mean            =   5.6750747039164E-02
(PID.TID 0000.0001) %MON dynstat_vvel_sd              =   2.4886124338341E+00
(PID.TID 0000.0001) %MON dynstat_vvel_del2            =   5.4601501015498E-04
(PID.TID 0000.0001) %MON dynstat_wvel_max             =   7.7787557764021E-02
(PID.TID 0000.0001) %MON dynstat_wvel_min             =  -8.1389532405185E-02
(PID.TID 0000.0001) %MON dynstat_wvel_mean            =   5.0318638345824E-18
(PID.TID 0000.0001) %MON dynstat_wvel_sd              =   2.4393370521159E-02
(PID.TID 0000.0001) %MON dynstat_wvel_del2            =   3.0817645637168E-05
(PID.TID 0000.0001) %MON dynstat_theta_max            =   1.1539439361967E+03
(PID.TID 0000.0001) %MON dynstat_theta_min            =   2.5569751105558E+02
(PID.TID 0000.0001) %MON dynstat_theta_mean           =   3.2788336711905E+02
(PID.TID 0000.0001) %MON dynstat_theta_sd             =   9.0371025348682E+01
(PID.TID 0000.0001) %MON dynstat_theta_del2           =   5.6626752282967E-04
(PID.TID 0000.0001) %MON dynstat_salt_max             =   2.0316639816904E-02
(PID.TID 0000.0001) %MON dynstat_salt_min             =   0.0000000000000E+00
(PID.TID 0000.0001) %MON dynstat_salt_mean            =   1.8179026894096E-03
(PID.TID 0000.0001) %MON dynstat_salt_sd              =   3.8141951670613E-03
(PID.TID 0000.0001) %MON dynstat_salt_del2            =   3.3055434636255E-07
(PID.TID 0000.0001) %MON advcfl_uvel_max              =   2.1717726899721E-02
(PID.TID 0000.0001) %MON advcfl_vvel_max              =   2.1715887766070E-02
(PID.TID 0000.0001) %MON advcfl_wvel_max              =   4.5148729093552E-03
(PID.TID 0000.0001) %MON advcfl_W_hf_max              =   4.9677328857516E-03
(PID.TID 0000.0001) %MON am_eta_mean                  =  -9.2599024791482E+09
(PID.TID 0000.0001) %MON am_uZo_mean                  =   9.2590702956294E+09
(PID.TID 0000.0001) %MON am_tot_mean                  =  -8.3218351880264E+05
(PID.TID 0000.0001) %MON pe_b_mean                    =   8.9639753205287E-02
(PID.TID 0000.0001) %MON ke_max                       =   2.9727728773306E+01
(PID.TID 0000.0001) %MON ke_mean                      =   6.1963587307040E+00
(PID.TID 0000.0001) %MON ke_vol                       =   5.0986421042784E+19
(PID.TID 0000.0001) %MON vort_r_min                   =  -7.5882075968276E-07
(PID.TID 0000.0001) %MON vort_r_max                   =   7.5945618528679E-07
(PID.TID 0000.0001) %MON vort_a_mean                  =   5.8832524170843E-20
(PID.TID 0000.0001) %MON vort_a_sd                    =   8.4248711357945E-05
(PID.TID 0000.0001) %MON vort_p_mean                  =   5.8832520347450E-20
(PID.TID 0000.0001) %MON vort_p_sd                    =   8.4209907647890E-05
(PID.TID 0000.0001) %MON surfExpan_theta_mean         =  -1.6394600266734E+00
(PID.TID 0000.0001) %MON surfExpan_salt_mean          =  -1.5177994422551E-04
(PID.TID 0000.0001) %MON surfExpan_Heat_mean          =  -1.4387419711657E+02
(PID.TID 0000.0001) %MON En_Budget_T2PE_mean          =   1.6886406849561E+01
(PID.TID 0000.0001) // =======================================================
(PID.TID 0000.0001) // End MONITOR dynamic field statistics
(PID.TID 0000.0001) // =======================================================
 cg2d: Sum(rhs),rhsMax =  -1.86264514923096E-09  2.73902859408264E+03
(PID.TID 0000.0001)      cg2d_init_res =   2.51979467774434E+04
(PID.TID 0000.0001)      cg2d_iters(min,last) =      -1      13
(PID.TID 0000.0001)      cg2d_last_res =   2.41864364495476E-11
(PID.TID 0000.0001) // =======================================================
(PID.TID 0000.0001) // Begin MONITOR dynamic field statistics
(PID.TID 0000.0001) // =======================================================
(PID.TID 0000.0001) %MON time_tsnumber                =                     7
(PID.TID 0000.0001) %MON time_secondsf                =   2.5200000000000E+03
(PID.TID 0000.0001) %MON dynstat_eta_max              =   3.4137710252112E+02
(PID.TID 0000.0001) %MON dynstat_eta_min              =  -2.4185994949341E+02
(PID.TID 0000.0001) %MON dynstat_eta_mean             =  -6.9623766368850E-14
(PID.TID 0000.0001) %MON dynstat_eta_sd               =   1.9304912638592E+02
(PID.TID 0000.0001) %MON dynstat_eta_del2             =   2.2785936287925E-01
(PID.TID 0000.0001) %MON dynstat_uvel_max             =   8.8850039626741E+00
(PID.TID 0000.0001) %MON dynstat_uvel_min             =  -8.8888780620163E+00
(PID.TID 0000.0001) %MON dynstat_uvel_mean            =   7.6978014298911E-02
(PID.TID 0000.0001) %MON dynstat_uvel_sd              =   2.8890524712816E+00
(PID.TID 0000.0001) %MON dynstat_uvel_del2            =   6.2431423628921E-04
(PID.TID 0000.0001) %MON dynstat_vvel_max             =   8.8888739350079E+00
(PID.TID 0000.0001) %MON dynstat_vvel_min             =  -8.8870208837193E+00
(PID.TID 0000.0001) %MON dynstat_vvel_mean            =   7.7205377387194E-02
(PID.TID 0000.0001) %MON dynstat_vvel_sd              =   2.8890781492188E+00
(PID.TID 0000.0001) %MON dynstat_vvel_del2            =   6.2443400659074E-04
(PID.TID 0000.0001) %MON dynstat_wvel_max             =   8.7134481995265E-02
(PID.TID 0000.0001) %MON dynstat_wvel_min             =  -9.6465539602441E-02
(PID.TID 0000.0001) %MON dynstat_wvel_mean            =  -6.1011348994311E-17
(PID.TID 0000.0001) %MON dynstat_wvel_sd              =   2.8242800408796E-02
(PID.TID 0000.0001) %MON dynstat_wvel_del2            =   3.3861142396564E-05
(PID.TID 0000.0001) %MON dynstat_theta_max            =   1.1540368740113E+03
(PID.TID 0000.0001) %MON dynstat_theta_min            =   2.5581541628546E+02
(PID.TID 0000.0001) %MON dynstat_theta_mean           =   3.2788506019149E+02
(PID.TID 0000.0001) %MON dynstat_theta_sd             =   9.0370673266461E+01
(PID.TID 0000.0001) %MON dynstat_theta_del2           =   5.7141249683081E-04
(PID.TID 0000.0001) %MON dynstat_salt_max             =   2.0316887349153E-02
(PID.TID 0000.0001) %MON dynstat_salt_min             =   0.0000000000000E+00
(PID.TID 0000.0001) %MON dynstat_salt_mean            =   1.8212756268676E-03
(PID.TID 0000.0001) %MON dynstat_salt_sd              =   3.8168681075957E-03
(PID.TID 0000.0001) %MON dynstat_salt_del2            =   3.7227404054893E-07
(PID.TID 0000.0001) %MON advcfl_uvel_max              =   2.5361599852363E-02
(PID.TID 0000.0001) %MON advcfl_vvel_max              =   2.5358857964526E-02
(PID.TID 0000.0001) %MON advcfl_wvel_max              =   4.9313611455891E-03
(PID.TID 0000.0001) %MON advcfl_W_hf_max              =   5.4237995468885E-03
(PID.TID 0000.0001) %MON am_eta_mean                  =  -1.2914215757933E+10
(PID.TID 0000.0001) %MON am_uZo_mean                  =   1.2911726058306E+10
(PID.TID 0000.0001) %MON am_tot_mean                  =  -2.4896996273937E+06
(PID.TID 0000.0001) %MON pe_b_mean                    =   1.5784008875911E-01
(PID.TID 0000.0001) %MON ke_max                       =   4.0163805945373E+01
(PID.TID 0000.0001) %MON ke_mean                      =   8.3526415095484E+00
(PID.TID 0000.0001) %MON ke_vol                       =   5.0986421042785E+19
(PID.TID 0000.0001) %MON vort_r_min                   =  -1.0012434232409E-06
(PID.TID 0000.0001) %MON vort_r_max                   =   1.0020929016388E-06
(PID.TID 0000.0001) %MON vort_a_mean                  =  -3.6770327606777E-20
(PID.TID 0000.0001) %MON vort_a_sd                    =   8.4265547074412E-05
(PID.TID 0000.0001) %MON vort_p_mean                  =  -3.6770324268886E-20
(PID.TID 0000.0001) %MON vort_p_sd                    =   8.4211403743949E-05
(PID.TID 0000.0001) %MON surfExpan_theta_mean         =  -1.8944883942828E+00
(PID.TID 0000.0001) %MON surfExpan_salt_mean          =  -1.7558847384976E-04
(PID.TID 0000.0001) %MON surfExpan_Heat_mean          =  -1.6630131666632E+02
(PID.TID 0000.0001) %MON En_Budget_T2PE_mean          =   1.9589520189609E+01
(PID.TID 0000.0001) // =======================================================
(PID.TID 0000.0001) // End MONITOR dynamic field statistics
(PID.TID 0000.0001) // =======================================================
 cg2d: Sum(rhs),rhsMax =   4.19095158576965E-09  3.49168323328915E+03
(PID.TID 0000.0001)      cg2d_init_res =   2.85476956766593E+04
(PID.TID 0000.0001)      cg2d_iters(min,last) =      -1      13
(PID.TID 0000.0001)      cg2d_last_res =   3.43619413960319E-11
(PID.TID 0000.0001) // =======================================================
(PID.TID 0000.0001) // Begin MONITOR dynamic field statistics
(PID.TID 0000.0001) // =======================================================
(PID.TID 0000.0001) %MON time_tsnumber                =                     8
(PID.TID 0000.0001) %MON time_secondsf                =   2.8800000000000E+03
(PID.TID 0000.0001) %MON dynstat_eta_max              =   4.3519485516771E+02
(PID.TID 0000.0001) %MON dynstat_eta_min              =  -3.0948339355314E+02
(PID.TID 0000.0001) %MON dynstat_eta_mean             =   3.2134046016392E-14
(PID.TID 0000.0001) %MON dynstat_eta_sd               =   2.4694332976551E+02
(PID.TID 0000.0001) %MON dynstat_eta_del2             =   2.5107828564424E-01
(PID.TID 0000.0001) %MON dynstat_uvel_max             =   1.0104900700659E+01
(PID.TID 0000.0001) %MON dynstat_uvel_min             =  -1.0109534403874E+01
(PID.TID 0000.0001) %MON dynstat_uvel_mean            =   1.0023714348231E-01
(PID.TID 0000.0001) %MON dynstat_uvel_sd              =   3.2836860714169E+00
(PID.TID 0000.0001) %MON dynstat_uvel_del2            =   7.0080071903420E-04
(PID.TID 0000.0001) %MON dynstat_vvel_max             =   1.0109591926204E+01
(PID.TID 0000.0001) %MON dynstat_vvel_min             =  -1.0107194791584E+01
(PID.TID 0000.0001) %MON dynstat_vvel_mean            =   1.0054027418583E-01
(PID.TID 0000.0001) %MON dynstat_vvel_sd              =   3.2837209620670E+00
(PID.TID 0000.0001) %MON dynstat_vvel_del2            =   7.0094827526720E-04
(PID.TID 0000.0001) %MON dynstat_wvel_max             =   9.6532761775943E-02
(PID.TID 0000.0001) %MON dynstat_wvel_min             =  -1.1171583130432E-01
(PID.TID 0000.0001) %MON dynstat_wvel_mean            =  -1.8240506400361E-17
(PID.TID 0000.0001) %MON dynstat_wvel_sd              =   3.2043768870211E-02
(PID.TID 0000.0001) %MON dynstat_wvel_del2            =   3.7017090552939E-05
(PID.TID 0000.0001) %MON dynstat_theta_max            =   1.1541410069244E+03
(PID.TID 0000.0001) %MON dynstat_theta_min            =   2.5593046046282E+02
(PID.TID 0000.0001) %MON dynstat_theta_mean           =   3.2788664954967E+02
(PID.TID 0000.0001) %MON dynstat_theta_sd             =   9.0370431660296E+01
(PID.TID 0000.0001) %MON dynstat_theta_del2           =   5.7748620973139E-04
(PID.TID 0000.0001) %MON dynstat_salt_max             =   2.0317135396427E-02
(PID.TID 0000.0001) %MON dynstat_salt_min             =   0.0000000000000E+00
(PID.TID 0000.0001) %MON dynstat_salt_mean            =   1.8246156672144E-03
(PID.TID 0000.0001) %MON dynstat_salt_sd              =   3.8195746599915E-03
(PID.TID 0000.0001) %MON dynstat_salt_del2            =   4.1535667491946E-07
(PID.TID 0000.0001) %MON advcfl_uvel_max              =   2.9012023345327E-02
(PID.TID 0000.0001) %MON advcfl_vvel_max              =   2.9008142017899E-02
(PID.TID 0000.0001) %MON advcfl_wvel_max              =   5.3055354492079E-03
(PID.TID 0000.0001) %MON advcfl_W_hf_max              =   5.8327050733696E-03
(PID.TID 0000.0001) %MON am_eta_mean                  =  -1.7144577949726E+10
(PID.TID 0000.0001) %MON am_uZo_mean                  =   1.7139576505906E+10
(PID.TID 0000.0001) %MON am_tot_mean                  =  -5.0014438198185E+06
(PID.TID 0000.0001) %MON pe_b_mean                    =   2.5827135134332E-01
(PID.TID 0000.0001) %MON ke_max                       =   5.2035021131486E+01
(PID.TID 0000.0001) %MON ke_mean                      =   1.0792786702004E+01
(PID.TID 0000.0001) %MON ke_vol                       =   5.0986421042784E+19
(PID.TID 0000.0001) %MON vort_r_min                   =  -1.2730258295569E-06
(PID.TID 0000.0001) %MON vort_r_max                   =   1.2740733186990E-06
(PID.TID 0000.0001) %MON vort_a_mean                  =  -8.8248786256265E-20
(PID.TID 0000.0001) %MON vort_a_sd                    =   8.4284799128583E-05
(PID.TID 0000.0001) %MON vort_p_mean                  =  -8.8248775698109E-20
(PID.TID 0000.0001) %MON vort_p_sd                    =   8.4212880833965E-05
(PID.TID 0000.0001) %MON surfExpan_theta_mean         =  -2.1421438051849E+00
(PID.TID 0000.0001) %MON surfExpan_salt_mean          =  -1.9880403540922E-04
(PID.TID 0000.0001) %MON surfExpan_Heat_mean          =  -1.8810195084312E+02
(PID.TID 0000.0001) %MON En_Budget_T2PE_mean          =   2.2248256282363E+01
(PID.TID 0000.0001) // =======================================================
(PID.TID 0000.0001) // End MONITOR dynamic field statistics
(PID.TID 0000.0001) // =======================================================
(PID.TID 0000.0001)   Exporting atmospheric fluxes at iter.         8
(PID.TID 0000.0001)   Importing oceanic fields at iteration         8
 cg2d: Sum(rhs),rhsMax =   9.31322574615479E-10  4.32475929303156E+03
(PID.TID 0000.0001)      cg2d_init_res =   3.18063871052399E+04
(PID.TID 0000.0001)      cg2d_iters(min,last) =      -1      13
(PID.TID 0000.0001)      cg2d_last_res =   4.48887495023277E-11
(PID.TID 0000.0001) // =======================================================
(PID.TID 0000.0001) // Begin MONITOR dynamic field statistics
(PID.TID 0000.0001) // =======================================================
(PID.TID 0000.0001) %MON time_tsnumber                =                     9
(PID.TID 0000.0001) %MON time_secondsf                =   3.2400000000000E+03
(PID.TID 0000.0001) %MON dynstat_eta_max              =   5.3904303109414E+02
(PID.TID 0000.0001) %MON dynstat_eta_min              =  -3.8482966294999E+02
(PID.TID 0000.0001) %MON dynstat_eta_mean             =   1.0711348672131E-14
(PID.TID 0000.0001) %MON dynstat_eta_sd               =   3.0699543877727E+02
(PID.TID 0000.0001) %MON dynstat_eta_del2             =   2.7453497498993E-01
(PID.TID 0000.0001) %MON dynstat_uvel_max             =   1.1307041011555E+01
(PID.TID 0000.0001) %MON dynstat_uvel_min             =  -1.1312475173919E+01
(PID.TID 0000.0001) %MON dynstat_uvel_mean            =   1.2628094819429E-01
(PID.TID 0000.0001) %MON dynstat_uvel_sd              =   3.6718996555346E+00
(PID.TID 0000.0001) %MON dynstat_uvel_del2            =   7.7547261701569E-04
(PID.TID 0000.0001) %MON dynstat_vvel_max             =   1.1312612275115E+01
(PID.TID 0000.0001) %MON dynstat_vvel_min             =  -1.1309608821457E+01
(PID.TID 0000.0001) %MON dynstat_vvel_mean            =   1.2667065653142E-01
(PID.TID 0000.0001) %MON dynstat_vvel_sd              =   3.6719451809677E+00
(PID.TID 0000.0001) %MON dynstat_vvel_del2            =   7.7565520127842E-04
(PID.TID 0000.0001) %MON dynstat_wvel_max             =   1.0603729007988E-01
(PID.TID 0000.0001) %MON dynstat_wvel_min             =  -1.2686539275494E-01
(PID.TID 0000.0001) %MON dynstat_wvel_mean            =  -1.6353557462393E-17
(PID.TID 0000.0001) %MON dynstat_wvel_sd              =   3.5794544727737E-02
(PID.TID 0000.0001) %MON dynstat_wvel_del2            =   4.0243657421903E-05
(PID.TID 0000.0001) %MON dynstat_theta_max            =   1.1542546929252E+03
(PID.TID 0000.0001) %MON dynstat_theta_min            =   2.5604386108744E+02
(PID.TID 0000.0001) %MON dynstat_theta_mean           =   3.2788810091669E+02
(PID.TID 0000.0001) %MON dynstat_theta_sd             =   9.0370327756642E+01
(PID.TID 0000.0001) %MON dynstat_theta_del2           =   5.8330236799960E-04
(PID.TID 0000.0001) %MON dynstat_salt_max             =   2.0317383991125E-02
(PID.TID 0000.0001) %MON dynstat_salt_min             =   0.0000000000000E+00
(PID.TID 0000.0001) %MON dynstat_salt_mean            =   1.8279313946164E-03
(PID.TID 0000.0001) %MON dynstat_salt_sd              =   3.8223032822271E-03
(PID.TID 0000.0001) %MON dynstat_salt_del2            =   4.5697783668964E-07
(PID.TID 0000.0001) %MON advcfl_uvel_max              =   3.2653796495484E-02
(PID.TID 0000.0001) %MON advcfl_vvel_max              =   3.2649095346038E-02
(PID.TID 0000.0001) %MON advcfl_wvel_max              =   5.6437670742505E-03
(PID.TID 0000.0001) %MON advcfl_W_hf_max              =   6.2013642562594E-03
(PID.TID 0000.0001) %MON am_eta_mean                  =  -2.1937108274169E+10
(PID.TID 0000.0001) %MON am_uZo_mean                  =   2.1928617860969E+10
(PID.TID 0000.0001) %MON am_tot_mean                  =  -8.4904131995544E+06
(PID.TID 0000.0001) %MON pe_b_mean                    =   3.9915859114033E-01
(PID.TID 0000.0001) %MON ke_max                       =   6.5276213145938E+01
(PID.TID 0000.0001) %MON ke_mean                      =   1.3499010412730E+01
(PID.TID 0000.0001) %MON ke_vol                       =   5.0986421042785E+19
(PID.TID 0000.0001) %MON vort_r_min                   =  -1.5725451845149E-06
(PID.TID 0000.0001) %MON vort_r_max                   =   1.5737672185554E-06
(PID.TID 0000.0001) %MON vort_a_mean                  =   7.3540655213554E-21
(PID.TID 0000.0001) %MON vort_a_sd                    =   8.4306416303590E-05
(PID.TID 0000.0001) %MON vort_p_mean                  =   7.3540644080360E-21
(PID.TID 0000.0001) %MON vort_p_sd                    =   8.4214338957977E-05
(PID.TID 0000.0001) %MON surfExpan_theta_mean         =  -2.3816888093324E+00
(PID.TID 0000.0001) %MON surfExpan_salt_mean          =  -2.2136595079980E-04
(PID.TID 0000.0001) %MON surfExpan_Heat_mean          =  -2.0921347073616E+02
(PID.TID 0000.0001) %MON En_Budget_T2PE_mean          =   2.4858408925413E+01
(PID.TID 0000.0001) // =======================================================
(PID.TID 0000.0001) // End MONITOR dynamic field statistics
(PID.TID 0000.0001) // =======================================================
 cg2d: Sum(rhs),rhsMax =   9.31322574615479E-10  5.23424878788984E+03
(PID.TID 0000.0001)      cg2d_init_res =   3.49632966071916E+04
(PID.TID 0000.0001)      cg2d_iters(min,last) =      -1      13
(PID.TID 0000.0001)      cg2d_last_res =   5.58019453492443E-11
(PID.TID 0000.0001) // =======================================================
(PID.TID 0000.0001) // Begin MONITOR dynamic field statistics
(PID.TID 0000.0001) // =======================================================
(PID.TID 0000.0001) %MON time_tsnumber                =                    10
(PID.TID 0000.0001) %MON time_secondsf                =   3.6000000000000E+03
(PID.TID 0000.0001) %MON dynstat_eta_max              =   6.5242482034359E+02
(PID.TID 0000.0001) %MON dynstat_eta_min              =  -4.6766168463255E+02
(PID.TID 0000.0001) %MON dynstat_eta_mean             =  -5.3556743360654E-14
(PID.TID 0000.0001) %MON dynstat_eta_sd               =   3.7301588870467E+02
(PID.TID 0000.0001) %MON dynstat_eta_del2             =   2.9874927256603E-01
(PID.TID 0000.0001) %MON dynstat_uvel_max             =   1.2489944851923E+01
(PID.TID 0000.0001) %MON dynstat_uvel_min             =  -1.2496774446333E+01
(PID.TID 0000.0001) %MON dynstat_uvel_mean            =   1.5501611271908E-01
(PID.TID 0000.0001) %MON dynstat_uvel_sd              =   4.0531229453505E+00
(PID.TID 0000.0001) %MON dynstat_uvel_del2            =   8.4834628738832E-04
(PID.TID 0000.0001) %MON dynstat_vvel_max             =   1.2496451953074E+01
(PID.TID 0000.0001) %MON dynstat_vvel_min             =  -1.2492940486285E+01
(PID.TID 0000.0001) %MON dynstat_vvel_mean            =   1.5550315827519E-01
(PID.TID 0000.0001) %MON dynstat_vvel_sd              =   4.0531807691212E+00
(PID.TID 0000.0001) %MON dynstat_vvel_del2            =   8.4857039732447E-04
(PID.TID 0000.0001) %MON dynstat_wvel_max             =   1.1596587422014E-01
(PID.TID 0000.0001) %MON dynstat_wvel_min             =  -1.4175203563836E-01
(PID.TID 0000.0001) %MON dynstat_wvel_mean            =  -1.8869489379684E-17
(PID.TID 0000.0001) %MON dynstat_wvel_sd              =   3.9492778074276E-02
(PID.TID 0000.0001) %MON dynstat_wvel_del2            =   4.3501016356772E-05
(PID.TID 0000.0001) %MON dynstat_theta_max            =   1.1543802764805E+03
(PID.TID 0000.0001) %MON dynstat_theta_min            =   2.5615573029296E+02
(PID.TID 0000.0001) %MON dynstat_theta_mean           =   3.2788943459731E+02
(PID.TID 0000.0001) %MON dynstat_theta_sd             =   9.0370350545006E+01
(PID.TID 0000.0001) %MON dynstat_theta_del2           =   5.8790416406987E-04
(PID.TID 0000.0001) %MON dynstat_salt_max             =   2.0317633205392E-02
(PID.TID 0000.0001) %MON dynstat_salt_min             =   0.0000000000000E+00
(PID.TID 0000.0001) %MON dynstat_salt_mean            =   1.8312136086653E-03
(PID.TID 0000.0001) %MON dynstat_salt_sd              =   3.8250578525679E-03
(PID.TID 0000.0001) %MON dynstat_salt_del2            =   4.9568716993904E-07
(PID.TID 0000.0001) %MON advcfl_uvel_max              =   3.6290985131045E-02
(PID.TID 0000.0001) %MON advcfl_vvel_max              =   3.6285997813605E-02
(PID.TID 0000.0001) %MON advcfl_wvel_max              =   5.9504312154486E-03
(PID.TID 0000.0001) %MON advcfl_W_hf_max              =   6.5345541221091E-03
(PID.TID 0000.0001) %MON am_eta_mean                  =  -2.7276354681388E+10
(PID.TID 0000.0001) %MON am_uZo_mean                  =   2.7263283141518E+10
(PID.TID 0000.0001) %MON am_tot_mean                  =  -1.3071539869999E+07
(PID.TID 0000.0001) %MON pe_b_mean                    =   5.8929980497550E-01
(PID.TID 0000.0001) %MON ke_max                       =   7.9816813352964E+01
(PID.TID 0000.0001) %MON ke_mean                      =   1.6452145592377E+01
(PID.TID 0000.0001) %MON ke_vol                       =   5.0986421042785E+19
(PID.TID 0000.0001) %MON vort_r_min                   =  -1.8981383404653E-06
(PID.TID 0000.0001) %MON vort_r_max                   =   1.8995053971256E-06
(PID.TID 0000.0001) %MON vort_a_mean                  =   9.3151496603836E-20
(PID.TID 0000.0001) %MON vort_a_sd                    =   8.4330341830350E-05
(PID.TID 0000.0001) %MON vort_p_mean                  =   9.5602833991488E-20
(PID.TID 0000.0001) %MON vort_p_sd                    =   8.4215778633083E-05
(PID.TID 0000.0001) %MON surfExpan_theta_mean         =  -2.6124070888948E+00
(PID.TID 0000.0001) %MON surfExpan_salt_mean          =  -2.4322034175730E-04
(PID.TID 0000.0001) %MON surfExpan_Heat_mean          =  -2.2957469246791E+02
(PID.TID 0000.0001) %MON En_Budget_T2PE_mean          =   2.7415747786768E+01
(PID.TID 0000.0001) // =======================================================
(PID.TID 0000.0001) // End MONITOR dynamic field statistics
(PID.TID 0000.0001) // =======================================================
 cg2d: Sum(rhs),rhsMax =   1.86264514923096E-09  6.21592869311051E+03
(PID.TID 0000.0001)      cg2d_init_res =   3.80086291262448E+04
(PID.TID 0000.0001)      cg2d_iters(min,last) =      -1      13
(PID.TID 0000.0001)      cg2d_last_res =   6.68970075023312E-11
(PID.TID 0000.0001) // =======================================================
(PID.TID 0000.0001) // Begin MONITOR dynamic field statistics
(PID.TID 0000.0001) // =======================================================
(PID.TID 0000.0001) %MON time_tsnumber                =                    11
(PID.TID 0000.0001) %MON time_secondsf                =   3.9600000000000E+03
(PID.TID 0000.0001) %MON dynstat_eta_max              =   7.7481782771220E+02
(PID.TID 0000.0001) %MON dynstat_eta_min              =  -5.5772170929882E+02
(PID.TID 0000.0001) %MON dynstat_eta_mean             =   7.4979440704916E-14
(PID.TID 0000.0001) %MON dynstat_eta_sd               =   4.4479580591870E+02
(PID.TID 0000.0001) %MON dynstat_eta_del2             =   3.2401416324405E-01
(PID.TID 0000.0001) %MON dynstat_uvel_max             =   1.3669113675261E+01
(PID.TID 0000.0001) %MON dynstat_uvel_min             =  -1.3674694584618E+01
(PID.TID 0000.0001) %MON dynstat_uvel_mean            =   1.8634122844541E-01
(PID.TID 0000.0001) %MON dynstat_uvel_sd              =   4.4268146664403E+00
(PID.TID 0000.0001) %MON dynstat_uvel_del2            =   9.1931627351296E-04
(PID.TID 0000.0001) %MON dynstat_vvel_max             =   1.3674300238068E+01
(PID.TID 0000.0001) %MON dynstat_vvel_min             =  -1.3670190160542E+01
(PID.TID 0000.0001) %MON dynstat_vvel_mean            =   1.8693629710588E-01
(PID.TID 0000.0001) %MON dynstat_vvel_sd              =   4.4268856264139E+00
(PID.TID 0000.0001) %MON dynstat_vvel_del2            =   9.1958254434365E-04
(PID.TID 0000.0001) %MON dynstat_wvel_max             =   1.2608186818916E-01
(PID.TID 0000.0001) %MON dynstat_wvel_min             =  -1.5626971500997E-01
(PID.TID 0000.0001) %MON dynstat_wvel_mean            =  -3.3965080883431E-17
(PID.TID 0000.0001) %MON dynstat_wvel_sd              =   4.3135210834055E-02
(PID.TID 0000.0001) %MON dynstat_wvel_del2            =   4.6755822098864E-05
(PID.TID 0000.0001) %MON dynstat_theta_max            =   1.1545468470020E+03
(PID.TID 0000.0001) %MON dynstat_theta_min            =   2.5626591958974E+02
(PID.TID 0000.0001) %MON dynstat_theta_mean           =   3.2789060776514E+02
(PID.TID 0000.0001) %MON dynstat_theta_sd             =   9.0370531521417E+01
(PID.TID 0000.0001) %MON dynstat_theta_del2           =   5.9172514753104E-04
(PID.TID 0000.0001) %MON dynstat_salt_max             =   2.0317883088754E-02
(PID.TID 0000.0001) %MON dynstat_salt_min             =   0.0000000000000E+00
(PID.TID 0000.0001) %MON dynstat_salt_mean            =   1.8344748346673E-03
(PID.TID 0000.0001) %MON dynstat_salt_sd              =   3.8278372302198E-03
(PID.TID 0000.0001) %MON dynstat_salt_del2            =   5.3293400822530E-07
(PID.TID 0000.0001) %MON advcfl_uvel_max              =   3.9894426942474E-02
(PID.TID 0000.0001) %MON advcfl_vvel_max              =   3.9889135435775E-02
(PID.TID 0000.0001) %MON advcfl_wvel_max              =   6.2322373351069E-03
(PID.TID 0000.0001) %MON advcfl_W_hf_max              =   6.8396901392815E-03
(PID.TID 0000.0001) %MON am_eta_mean                  =  -3.3145338701238E+10
(PID.TID 0000.0001) %MON am_uZo_mean                  =   3.3126490902659E+10
(PID.TID 0000.0001) %MON am_tot_mean                  =  -1.8847798578712E+07
(PID.TID 0000.0001) %MON pe_b_mean                    =   8.3792085993636E-01
(PID.TID 0000.0001) %MON ke_max                       =   9.5580899124624E+01
(PID.TID 0000.0001) %MON ke_mean                      =   1.9631836336492E+01
(PID.TID 0000.0001) %MON ke_vol                       =   5.0986421042785E+19
(PID.TID 0000.0001) %MON vort_r_min                   =  -2.2481951523245E-06
(PID.TID 0000.0001) %MON vort_r_max                   =   2.2496591880594E-06
(PID.TID 0000.0001) %MON vort_a_mean                  =   2.2307332081445E-19
(PID.TID 0000.0001) %MON vort_a_sd                    =   8.4356513872024E-05
(PID.TID 0000.0001) %MON vort_p_mean                  =   2.2552462553097E-19
(PID.TID 0000.0001) %MON vort_p_sd                    =   8.4217201281159E-05
(PID.TID 0000.0001) %MON surfExpan_theta_mean         =  -2.8336349219813E+00
(PID.TID 0000.0001) %MON surfExpan_salt_mean          =  -2.6430960590441E-04
(PID.TID 0000.0001) %MON surfExpan_Heat_mean          =  -2.4912858464238E+02
(PID.TID 0000.0001) %MON En_Budget_T2PE_mean          =   2.9916499655783E+01
(PID.TID 0000.0001) // =======================================================
(PID.TID 0000.0001) // End MONITOR dynamic field statistics
(PID.TID 0000.0001) // =======================================================
 cg2d: Sum(rhs),rhsMax =  -1.02445483207703E-08  7.26541109913792E+03
(PID.TID 0000.0001)      cg2d_init_res =   4.09339488949927E+04
(PID.TID 0000.0001)      cg2d_iters(min,last) =      -1      13
(PID.TID 0000.0001)      cg2d_last_res =   7.73679320548786E-11
(PID.TID 0000.0001) // =======================================================
(PID.TID 0000.0001) // Begin MONITOR dynamic field statistics
(PID.TID 0000.0001) // =======================================================
(PID.TID 0000.0001) %MON time_tsnumber                =                    12
(PID.TID 0000.0001) %MON time_secondsf                =   4.3200000000000E+03
(PID.TID 0000.0001) %MON dynstat_eta_max              =   9.0568070221494E+02
(PID.TID 0000.0001) %MON dynstat_eta_min              =  -6.5473091809335E+02
(PID.TID 0000.0001) %MON dynstat_eta_mean             =   3.6418585485245E-13
(PID.TID 0000.0001) %MON dynstat_eta_sd               =   5.2210886289869E+02
(PID.TID 0000.0001) %MON dynstat_eta_del2             =   3.5019746944161E-01
(PID.TID 0000.0001) %MON dynstat_uvel_max             =   1.4838903490025E+01
(PID.TID 0000.0001) %MON dynstat_uvel_min             =  -1.4845246561477E+01
(PID.TID 0000.0001) %MON dynstat_uvel_mean            =   2.2014732154235E-01
(PID.TID 0000.0001) %MON dynstat_uvel_sd              =   4.7924664082999E+00
(PID.TID 0000.0001) %MON dynstat_uvel_del2            =   9.8817115442415E-04
(PID.TID 0000.0001) %MON dynstat_vvel_max             =   1.4845195932336E+01
(PID.TID 0000.0001) %MON dynstat_vvel_min             =  -1.4840126265063E+01
(PID.TID 0000.0001) %MON dynstat_vvel_mean            =   2.2086096048609E-01
(PID.TID 0000.0001) %MON dynstat_vvel_sd              =   4.7925511705617E+00
(PID.TID 0000.0001) %MON dynstat_vvel_del2            =   9.8848077677031E-04
(PID.TID 0000.0001) %MON dynstat_wvel_max             =   1.3578514608386E-01
(PID.TID 0000.0001) %MON dynstat_wvel_min             =  -1.7034373408756E-01
(PID.TID 0000.0001) %MON dynstat_wvel_mean            =   4.5286774511241E-17
(PID.TID 0000.0001) %MON dynstat_wvel_sd              =   4.6718524107931E-02
(PID.TID 0000.0001) %MON dynstat_wvel_del2            =   4.9991352473488E-05
(PID.TID 0000.0001) %MON dynstat_theta_max            =   1.1547134113670E+03
(PID.TID 0000.0001) %MON dynstat_theta_min            =   2.5637430666580E+02
(PID.TID 0000.0001) %MON dynstat_theta_mean           =   3.2789159557230E+02
(PID.TID 0000.0001) %MON dynstat_theta_sd             =   9.0370888855556E+01
(PID.TID 0000.0001) %MON dynstat_theta_del2           =   5.9580792329241E-04
(PID.TID 0000.0001) %MON dynstat_salt_max             =   2.0318133689340E-02
(PID.TID 0000.0001) %MON dynstat_salt_min             =   0.0000000000000E+00
(PID.TID 0000.0001) %MON dynstat_salt_mean            =   1.8377226533484E-03
(PID.TID 0000.0001) %MON dynstat_salt_sd              =   3.8306491102505E-03
(PID.TID 0000.0001) %MON dynstat_salt_del2            =   5.6889762350512E-07
(PID.TID 0000.0001) %MON advcfl_uvel_max              =   4.3492359521981E-02
(PID.TID 0000.0001) %MON advcfl_vvel_max              =   4.3485379991206E-02
(PID.TID 0000.0001) %MON advcfl_wvel_max              =   6.5657113781074E-03
(PID.TID 0000.0001) %MON advcfl_W_hf_max              =   7.1483335364726E-03
(PID.TID 0000.0001) %MON am_eta_mean                  =  -3.9525600442764E+10
(PID.TID 0000.0001) %MON am_uZo_mean                  =   3.9499690463279E+10
(PID.TID 0000.0001) %MON am_tot_mean                  =  -2.5909979484856E+07
(PID.TID 0000.0001) %MON pe_b_mean                    =   1.1545261289554E+00
(PID.TID 0000.0001) %MON ke_max                       =   1.1248698135696E+02
(PID.TID 0000.0001) %MON ke_mean                      =   2.3016762702116E+01
(PID.TID 0000.0001) %MON ke_vol                       =   5.0986421042785E+19
(PID.TID 0000.0001) %MON vort_r_min                   =  -2.6211589782169E-06
(PID.TID 0000.0001) %MON vort_r_max                   =   2.6226602807171E-06
(PID.TID 0000.0001) %MON vort_a_mean                  =   1.1521369316790E-19
(PID.TID 0000.0001) %MON vort_a_sd                    =   8.4384864795054E-05
(PID.TID 0000.0001) %MON vort_p_mean                  =   1.0785959910505E-19
(PID.TID 0000.0001) %MON vort_p_sd                    =   8.4218608450632E-05
(PID.TID 0000.0001) %MON surfExpan_theta_mean         =  -3.0447460544812E+00
(PID.TID 0000.0001) %MON surfExpan_salt_mean          =  -2.8457930852606E-04
(PID.TID 0000.0001) %MON surfExpan_Heat_mean          =  -2.6782091675278E+02
(PID.TID 0000.0001) %MON En_Budget_T2PE_mean          =   3.2357119570168E+01
(PID.TID 0000.0001) // =======================================================
(PID.TID 0000.0001) // End MONITOR dynamic field statistics
(PID.TID 0000.0001) // =======================================================
 cg2d: Sum(rhs),rhsMax =  -7.45058059692383E-09  8.37820949552482E+03
(PID.TID 0000.0001)      cg2d_init_res =   4.37316732575442E+04
(PID.TID 0000.0001)      cg2d_iters(min,last) =      -1      13
(PID.TID 0000.0001)      cg2d_last_res =   8.68867627696315E-11
(PID.TID 0000.0001) // =======================================================
(PID.TID 0000.0001) // Begin MONITOR dynamic field statistics
(PID.TID 0000.0001) // =======================================================
(PID.TID 0000.0001) %MON time_tsnumber                =                    13
(PID.TID 0000.0001) %MON time_secondsf                =   4.6800000000000E+03
(PID.TID 0000.0001) %MON dynstat_eta_max              =   1.0444616804064E+03
(PID.TID 0000.0001) %MON dynstat_eta_min              =  -7.5838905755345E+02
(PID.TID 0000.0001) %MON dynstat_eta_mean             =  -4.0703124954097E-13
(PID.TID 0000.0001) %MON dynstat_eta_sd               =   6.0471307822511E+02
(PID.TID 0000.0001) %MON dynstat_eta_del2             =   3.7690597565758E-01
(PID.TID 0000.0001) %MON dynstat_uvel_max             =   1.5986606312195E+01
(PID.TID 0000.0001) %MON dynstat_uvel_min             =  -1.5993830439676E+01
(PID.TID 0000.0001) %MON dynstat_uvel_mean            =   2.5631838909963E-01
(PID.TID 0000.0001) %MON dynstat_uvel_sd              =   5.1495988333185E+00
(PID.TID 0000.0001) %MON dynstat_uvel_del2            =   1.0547233409459E-03
(PID.TID 0000.0001) %MON dynstat_vvel_max             =   1.5994102453595E+01
(PID.TID 0000.0001) %MON dynstat_vvel_min             =  -1.5987941373276E+01
(PID.TID 0000.0001) %MON dynstat_vvel_mean            =   2.5716089781335E-01
(PID.TID 0000.0001) %MON dynstat_vvel_sd              =   5.1496973476403E+00
(PID.TID 0000.0001) %MON dynstat_vvel_del2            =   1.0550735768669E-03
(PID.TID 0000.0001) %MON dynstat_wvel_max             =   1.4618096244034E-01
(PID.TID 0000.0001) %MON dynstat_wvel_min             =  -1.8389623332221E-01
(PID.TID 0000.0001) %MON dynstat_wvel_mean            =   1.6982540441715E-16
(PID.TID 0000.0001) %MON dynstat_wvel_sd              =   5.0239806743854E-02
(PID.TID 0000.0001) %MON dynstat_wvel_del2            =   5.3203732908871E-05
(PID.TID 0000.0001) %MON dynstat_theta_max            =   1.1548772483768E+03
(PID.TID 0000.0001) %MON dynstat_theta_min            =   2.5648079172567E+02
(PID.TID 0000.0001) %MON dynstat_theta_mean           =   3.2789240038393E+02
(PID.TID 0000.0001) %MON dynstat_theta_sd             =   9.0371421802739E+01
(PID.TID 0000.0001) %MON dynstat_theta_del2           =   6.0108705457726E-04
(PID.TID 0000.0001) %MON dynstat_salt_max             =   2.0318385054336E-02
(PID.TID 0000.0001) %MON dynstat_salt_min             =   0.0000000000000E+00
(PID.TID 0000.0001) %MON dynstat_salt_mean            =   1.8409544921031E-03
(PID.TID 0000.0001) %MON dynstat_salt_sd              =   3.8334852272160E-03
(PID.TID 0000.0001) %MON dynstat_salt_del2            =   6.0324111356055E-07
(PID.TID 0000.0001) %MON advcfl_uvel_max              =   4.7057258006064E-02
(PID.TID 0000.0001) %MON advcfl_vvel_max              =   4.7049285154501E-02
(PID.TID 0000.0001) %MON advcfl_wvel_max              =   7.0880775156310E-03
(PID.TID 0000.0001) %MON advcfl_W_hf_max              =   7.5168099831198E-03
(PID.TID 0000.0001) %MON am_eta_mean                  =  -4.6397251448020E+10
(PID.TID 0000.0001) %MON am_uZo_mean                  =   4.6362916505244E+10
(PID.TID 0000.0001) %MON am_tot_mean                  =  -3.4334942776009E+07
(PID.TID 0000.0001) %MON pe_b_mean                    =   1.5487465706054E+00
(PID.TID 0000.0001) %MON ke_max                       =   1.3044822712844E+02
(PID.TID 0000.0001) %MON ke_mean                      =   2.6584790880218E+01
(PID.TID 0000.0001) %MON ke_vol                       =   5.0986421042785E+19
(PID.TID 0000.0001) %MON vort_r_min                   =  -3.0155359246952E-06
(PID.TID 0000.0001) %MON vort_r_max                   =   3.0170110179974E-06
(PID.TID 0000.0001) %MON vort_a_mean                  =   2.9416262085422E-20
(PID.TID 0000.0001) %MON vort_a_sd                    =   8.4415322264639E-05
(PID.TID 0000.0001) %MON vort_p_mean                  =   3.4318961834760E-20
(PID.TID 0000.0001) %MON vort_p_sd                    =   8.4220002820820E-05
(PID.TID 0000.0001) %MON surfExpan_theta_mean         =  -3.2451477368854E+00
(PID.TID 0000.0001) %MON surfExpan_salt_mean          =  -3.0397962996600E-04
(PID.TID 0000.0001) %MON surfExpan_Heat_mean          =  -2.8559995022484E+02
(PID.TID 0000.0001) %MON En_Budget_T2PE_mean          =   3.4734094824065E+01
(PID.TID 0000.0001) // =======================================================
(PID.TID 0000.0001) // End MONITOR dynamic field statistics
(PID.TID 0000.0001) // =======================================================
 cg2d: Sum(rhs),rhsMax =  -1.76951289176941E-08  9.54982279731963E+03
(PID.TID 0000.0001)      cg2d_init_res =   4.63945821265214E+04
(PID.TID 0000.0001)      cg2d_iters(min,last) =      -1      13
(PID.TID 0000.0001)      cg2d_last_res =   9.53534461120854E-11
(PID.TID 0000.0001) // =======================================================
(PID.TID 0000.0001) // Begin MONITOR dynamic field statistics
(PID.TID 0000.0001) // =======================================================
(PID.TID 0000.0001) %MON time_tsnumber                =                    14
(PID.TID 0000.0001) %MON time_secondsf                =   5.0400000000000E+03
(PID.TID 0000.0001) %MON dynstat_eta_max              =   1.1906091417616E+03
(PID.TID 0000.0001) %MON dynstat_eta_min              =  -8.6837604881836E+02
(PID.TID 0000.0001) %MON dynstat_eta_mean             =   3.6418585485245E-13
(PID.TID 0000.0001) %MON dynstat_eta_sd               =   6.9235220740720E+02
(PID.TID 0000.0001) %MON dynstat_eta_del2             =   4.0369743260133E-01
(PID.TID 0000.0001) %MON dynstat_uvel_max             =   1.7118640844274E+01
(PID.TID 0000.0001) %MON dynstat_uvel_min             =  -1.7127222210054E+01
(PID.TID 0000.0001) %MON dynstat_uvel_mean            =   2.9473190787219E-01
(PID.TID 0000.0001) %MON dynstat_uvel_sd              =   5.4977673709657E+00
(PID.TID 0000.0001) %MON dynstat_uvel_del2            =   1.1188207377737E-03
(PID.TID 0000.0001) %MON dynstat_vvel_max             =   1.7126502760791E+01
(PID.TID 0000.0001) %MON dynstat_vvel_min             =  -1.7119744716534E+01
(PID.TID 0000.0001) %MON dynstat_vvel_mean            =   2.9571322479507E-01
(PID.TID 0000.0001) %MON dynstat_vvel_sd              =   5.4978791430798E+00
(PID.TID 0000.0001) %MON dynstat_vvel_del2            =   1.1192145563112E-03
(PID.TID 0000.0001) %MON dynstat_wvel_max             =   1.5634378711894E-01
(PID.TID 0000.0001) %MON dynstat_wvel_min             =  -1.9683669746749E-01
(PID.TID 0000.0001) %MON dynstat_wvel_mean            =   5.5350502180406E-17
(PID.TID 0000.0001) %MON dynstat_wvel_sd              =   5.3695626763516E-02
(PID.TID 0000.0001) %MON dynstat_wvel_del2            =   5.6386802301268E-05
(PID.TID 0000.0001) %MON dynstat_theta_max            =   1.1550526012240E+03
(PID.TID 0000.0001) %MON dynstat_theta_min            =   2.5658529429336E+02
(PID.TID 0000.0001) %MON dynstat_theta_mean           =   3.2789303125603E+02
(PID.TID 0000.0001) %MON dynstat_theta_sd             =   9.0372124203227E+01
(PID.TID 0000.0001) %MON dynstat_theta_del2           =   6.0798934600891E-04
(PID.TID 0000.0001) %MON dynstat_salt_max             =   2.0318637230577E-02
(PID.TID 0000.0001) %MON dynstat_salt_min             =   0.0000000000000E+00
(PID.TID 0000.0001) %MON dynstat_salt_mean            =   1.8441668767943E-03
(PID.TID 0000.0001) %MON dynstat_salt_sd              =   3.8363527215519E-03
(PID.TID 0000.0001) %MON dynstat_salt_del2            =   6.3683097849322E-07
(PID.TID 0000.0001) %MON advcfl_uvel_max              =   5.0572028295145E-02
(PID.TID 0000.0001) %MON advcfl_vvel_max              =   5.0561846517122E-02
(PID.TID 0000.0001) %MON advcfl_wvel_max              =   7.5868534355779E-03
(PID.TID 0000.0001) %MON advcfl_W_hf_max              =   7.9970883867675E-03
(PID.TID 0000.0001) %MON am_eta_mean                  =  -5.3739029933421E+10
(PID.TID 0000.0001) %MON am_uZo_mean                  =   5.3694843855274E+10
(PID.TID 0000.0001) %MON am_tot_mean                  =  -4.4186078147064E+07
(PID.TID 0000.0001) %MON pe_b_mean                    =   2.0301858550500E+00
(PID.TID 0000.0001) %MON ke_max                       =   1.4937303317945E+02
(PID.TID 0000.0001) %MON ke_mean                      =   3.0313217173055E+01
(PID.TID 0000.0001) %MON ke_vol                       =   5.0986421042784E+19
(PID.TID 0000.0001) %MON vort_r_min                   =  -3.4298914359168E-06
(PID.TID 0000.0001) %MON vort_r_max                   =   3.4312820461507E-06
(PID.TID 0000.0001) %MON vort_a_mean                  =  -1.4462995525332E-19
(PID.TID 0000.0001) %MON vort_a_sd                    =   8.4447808413809E-05
(PID.TID 0000.0001) %MON vort_p_mean                  =  -1.4953261231193E-19
(PID.TID 0000.0001) %MON vort_p_sd                    =   8.4221387279574E-05
(PID.TID 0000.0001) %MON surfExpan_theta_mean         =  -3.4342859367171E+00
(PID.TID 0000.0001) %MON surfExpan_salt_mean          =  -3.2246437393862E-04
(PID.TID 0000.0001) %MON surfExpan_Heat_mean          =  -3.0241686041987E+02
(PID.TID 0000.0001) %MON En_Budget_T2PE_mean          =   3.7044136540778E+01
(PID.TID 0000.0001) // =======================================================
(PID.TID 0000.0001) // End MONITOR dynamic field statistics
(PID.TID 0000.0001) // =======================================================
 cg2d: Sum(rhs),rhsMax =  -1.86264514923096E-09  1.07758361604649E+04
(PID.TID 0000.0001)      cg2d_init_res =   4.89156403442869E+04
(PID.TID 0000.0001)      cg2d_iters(min,last) =      -1      13
(PID.TID 0000.0001)      cg2d_last_res =   1.02863119026991E-10
(PID.TID 0000.0001) // =======================================================
(PID.TID 0000.0001) // Begin MONITOR dynamic field statistics
(PID.TID 0000.0001) // =======================================================
(PID.TID 0000.0001) %MON time_tsnumber                =                    15
(PID.TID 0000.0001) %MON time_secondsf                =   5.4000000000000E+03
(PID.TID 0000.0001) %MON dynstat_eta_max              =   1.3435838702306E+03
(PID.TID 0000.0001) %MON dynstat_eta_min              =  -9.8434605271539E+02
(PID.TID 0000.0001) %MON dynstat_eta_mean             =   1.7138157875409E-13
(PID.TID 0000.0001) %MON dynstat_eta_sd               =   7.8475672523763E+02
(PID.TID 0000.0001) %MON dynstat_eta_del2             =   4.3019419541316E-01
(PID.TID 0000.0001) %MON dynstat_uvel_max             =   1.8225811902283E+01
(PID.TID 0000.0001) %MON dynstat_uvel_min             =  -1.8235190620147E+01
(PID.TID 0000.0001) %MON dynstat_uvel_mean            =   3.3525932144433E-01
(PID.TID 0000.0001) %MON dynstat_uvel_sd              =   5.8365613405671E+00
(PID.TID 0000.0001) %MON dynstat_uvel_del2            =   1.1803842578730E-03
(PID.TID 0000.0001) %MON dynstat_vvel_max             =   1.8235010970466E+01
(PID.TID 0000.0001) %MON dynstat_vvel_min             =  -1.8226917369188E+01
(PID.TID 0000.0001) %MON dynstat_vvel_mean            =   3.3638887897519E-01
(PID.TID 0000.0001) %MON dynstat_vvel_sd              =   5.8366848834305E+00
(PID.TID 0000.0001) %MON dynstat_vvel_del2            =   1.1808252016330E-03
(PID.TID 0000.0001) %MON dynstat_wvel_max             =   1.6630541095857E-01
(PID.TID 0000.0001) %MON dynstat_wvel_min             =  -2.0906628614950E-01
(PID.TID 0000.0001) %MON dynstat_wvel_mean            =  -6.4156263890925E-17
(PID.TID 0000.0001) %MON dynstat_wvel_sd              =   5.7082250626364E-02
(PID.TID 0000.0001) %MON dynstat_wvel_del2            =   5.9521293954560E-05
(PID.TID 0000.0001) %MON dynstat_theta_max            =   1.1552129380974E+03
(PID.TID 0000.0001) %MON dynstat_theta_min            =   2.5668775036377E+02
(PID.TID 0000.0001) %MON dynstat_theta_mean           =   3.2789348378521E+02
(PID.TID 0000.0001) %MON dynstat_theta_sd             =   9.0372998554250E+01
(PID.TID 0000.0001) %MON dynstat_theta_del2           =   6.1632142632702E-04
(PID.TID 0000.0001) %MON dynstat_salt_max             =   2.0318890265329E-02
(PID.TID 0000.0001) %MON dynstat_salt_min             =   0.0000000000000E+00
(PID.TID 0000.0001) %MON dynstat_salt_mean            =   1.8473636326160E-03
(PID.TID 0000.0001) %MON dynstat_salt_sd              =   3.8392665780015E-03
(PID.TID 0000.0001) %MON dynstat_salt_del2            =   6.6843773687236E-07
(PID.TID 0000.0001) %MON advcfl_uvel_max              =   5.4027696734451E-02
(PID.TID 0000.0001) %MON advcfl_vvel_max              =   5.4014159439852E-02
(PID.TID 0000.0001) %MON advcfl_wvel_max              =   8.0582294447345E-03
(PID.TID 0000.0001) %MON advcfl_W_hf_max              =   8.4462873856550E-03
(PID.TID 0000.0001) %MON am_eta_mean                  =  -6.1528358046763E+10
(PID.TID 0000.0001) %MON am_uZo_mean                  =   6.1472844627630E+10
(PID.TID 0000.0001) %MON am_tot_mean                  =  -5.5513419133133E+07
(PID.TID 0000.0001) %MON pe_b_mean                    =   2.6082650839331E+00
(PID.TID 0000.0001) %MON ke_max                       =   1.6916601681045E+02
(PID.TID 0000.0001) %MON ke_mean                      =   3.4178947500664E+01
(PID.TID 0000.0001) %MON ke_vol                       =   5.0986421042785E+19
(PID.TID 0000.0001) %MON vort_r_min                   =  -3.8628467703764E-06
(PID.TID 0000.0001) %MON vort_r_max                   =   3.8641010277603E-06
(PID.TID 0000.0001) %MON vort_a_mean                  =   2.0591383459795E-19
(PID.TID 0000.0001) %MON vort_a_sd                    =   8.4482240319466E-05
(PID.TID 0000.0001) %MON vort_p_mean                  =   2.0836510492065E-19
(PID.TID 0000.0001) %MON vort_p_sd                    =   8.4222765293294E-05
(PID.TID 0000.0001) %MON surfExpan_theta_mean         =  -3.6116539377203E+00
(PID.TID 0000.0001) %MON surfExpan_salt_mean          =  -3.3998853452378E-04
(PID.TID 0000.0001) %MON surfExpan_Heat_mean          =  -3.1822654791362E+02
(PID.TID 0000.0001) %MON En_Budget_T2PE_mean          =   3.9284235216477E+01
(PID.TID 0000.0001) // =======================================================
(PID.TID 0000.0001) // End MONITOR dynamic field statistics
(PID.TID 0000.0001) // =======================================================
 cg2d: Sum(rhs),rhsMax =   2.14204192161560E-08  1.20520329414918E+04
(PID.TID 0000.0001)      cg2d_init_res =   5.12880312685416E+04
(PID.TID 0000.0001)      cg2d_iters(min,last) =      -1      13
(PID.TID 0000.0001)      cg2d_last_res =   1.09700396787063E-10
(PID.TID 0000.0001) // =======================================================
(PID.TID 0000.0001) // Begin MONITOR dynamic field statistics
(PID.TID 0000.0001) // =======================================================
(PID.TID 0000.0001) %MON time_tsnumber                =                    16
(PID.TID 0000.0001) %MON time_secondsf                =   5.7600000000000E+03
(PID.TID 0000.0001) %MON dynstat_eta_max              =   1.5028722358405E+03
(PID.TID 0000.0001) %MON dynstat_eta_min              =  -1.1059309868329E+03
(PID.TID 0000.0001) %MON dynstat_eta_mean             =   1.7138157875409E-13
(PID.TID 0000.0001) %MON dynstat_eta_sd               =   8.8164456709706E+02
(PID.TID 0000.0001) %MON dynstat_eta_del2             =   4.5613772691178E-01
(PID.TID 0000.0001) %MON dynstat_uvel_max             =   1.9305344493700E+01
(PID.TID 0000.0001) %MON dynstat_uvel_min             =  -1.9315541052147E+01
(PID.TID 0000.0001) %MON dynstat_uvel_mean            =   3.7776658245119E-01
(PID.TID 0000.0001) %MON dynstat_uvel_sd              =   6.1656088471077E+00
(PID.TID 0000.0001) %MON dynstat_uvel_del2            =   1.2394051843095E-03
(PID.TID 0000.0001) %MON dynstat_vvel_max             =   1.9315974398704E+01
(PID.TID 0000.0001) %MON dynstat_vvel_min             =  -1.9306419777828E+01
(PID.TID 0000.0001) %MON dynstat_vvel_mean            =   3.7905306279048E-01
(PID.TID 0000.0001) %MON dynstat_vvel_sd              =   6.1657429315152E+00
(PID.TID 0000.0001) %MON dynstat_vvel_del2            =   1.2398966799989E-03
(PID.TID 0000.0001) %MON dynstat_wvel_max             =   1.7719239532083E-01
(PID.TID 0000.0001) %MON dynstat_wvel_min             =  -2.2048919030433E-01
(PID.TID 0000.0001) %MON dynstat_wvel_mean            =   8.0509821353318E-17
(PID.TID 0000.0001) %MON dynstat_wvel_sd              =   6.0395713413962E-02
(PID.TID 0000.0001) %MON dynstat_wvel_del2            =   6.2583417746630E-05
(PID.TID 0000.0001) %MON dynstat_theta_max            =   1.1553539635453E+03
(PID.TID 0000.0001) %MON dynstat_theta_min            =   2.5678810990034E+02
(PID.TID 0000.0001) %MON dynstat_theta_mean           =   3.2789375676917E+02
(PID.TID 0000.0001) %MON dynstat_theta_sd             =   9.0374044258811E+01
(PID.TID 0000.0001) %MON dynstat_theta_del2           =   6.2514080546250E-04
(PID.TID 0000.0001) %MON dynstat_salt_max             =   2.0319144207342E-02
(PID.TID 0000.0001) %MON dynstat_salt_min             =   0.0000000000000E+00
(PID.TID 0000.0001) %MON dynstat_salt_mean            =   1.8505504112975E-03
(PID.TID 0000.0001) %MON dynstat_salt_sd              =   3.8422437312967E-03
(PID.TID 0000.0001) %MON dynstat_salt_del2            =   6.9699421760416E-07
(PID.TID 0000.0001) %MON advcfl_uvel_max              =   5.7415159383415E-02
(PID.TID 0000.0001) %MON advcfl_vvel_max              =   5.7397774051538E-02
(PID.TID 0000.0001) %MON advcfl_wvel_max              =   8.4985126883895E-03
(PID.TID 0000.0001) %MON advcfl_W_hf_max              =   8.8599589194680E-03
(PID.TID 0000.0001) %MON am_eta_mean                  =  -6.9741402225110E+10
(PID.TID 0000.0001) %MON am_uZo_mean                  =   6.9673048362968E+10
(PID.TID 0000.0001) %MON am_tot_mean                  =  -6.8353862142334E+07
(PID.TID 0000.0001) %MON pe_b_mean                    =   3.2920673114733E+00
(PID.TID 0000.0001) %MON ke_max                       =   1.8972928154883E+02
(PID.TID 0000.0001) %MON ke_mean                      =   3.8158753584242E+01
(PID.TID 0000.0001) %MON ke_vol                       =   5.0986421042785E+19
(PID.TID 0000.0001) %MON vort_r_min                   =  -4.3130630327670E-06
(PID.TID 0000.0001) %MON vort_r_max                   =   4.3141341067523E-06
(PID.TID 0000.0001) %MON vort_a_mean                  =  -3.6770327606777E-20
(PID.TID 0000.0001) %MON vort_a_sd                    =   8.4518529861019E-05
(PID.TID 0000.0001) %MON vort_p_mean                  =  -3.9221664690944E-20
(PID.TID 0000.0001) %MON vort_p_sd                    =   8.4224140649871E-05
(PID.TID 0000.0001) %MON surfExpan_theta_mean         =  -3.7767883272280E+00
(PID.TID 0000.0001) %MON surfExpan_salt_mean          =  -3.5651046025713E-04
(PID.TID 0000.0001) %MON surfExpan_Heat_mean          =  -3.3298730775941E+02
(PID.TID 0000.0001) %MON En_Budget_T2PE_mean          =   4.1451607851702E+01
(PID.TID 0000.0001) // =======================================================
(PID.TID 0000.0001) // End MONITOR dynamic field statistics
(PID.TID 0000.0001) // =======================================================
(PID.TID 0000.0001)   Exporting atmospheric fluxes at iter.        16
(PID.TID 0000.0001)   Importing oceanic fields at iteration        16
 cg2d: Sum(rhs),rhsMax =   1.67638063430786E-08  1.33745081320015E+04
(PID.TID 0000.0001)      cg2d_init_res =   5.35051803515942E+04
(PID.TID 0000.0001)      cg2d_iters(min,last) =      -1      13
(PID.TID 0000.0001)      cg2d_last_res =   1.16317225034200E-10
(PID.TID 0000.0001) // =======================================================
(PID.TID 0000.0001) // Begin MONITOR dynamic field statistics
(PID.TID 0000.0001) // =======================================================
(PID.TID 0000.0001) %MON time_tsnumber                =                    17
(PID.TID 0000.0001) %MON time_secondsf                =   6.1200000000000E+03
(PID.TID 0000.0001) %MON dynstat_eta_max              =   1.6679988772422E+03
(PID.TID 0000.0001) %MON dynstat_eta_min              =  -1.2327410309306E+03
(PID.TID 0000.0001) %MON dynstat_eta_mean             =  -1.7138157875409E-13
(PID.TID 0000.0001) %MON dynstat_eta_sd               =   9.8272174320231E+02
(PID.TID 0000.0001) %MON dynstat_eta_del2             =   4.8137157086076E-01
(PID.TID 0000.0001) %MON dynstat_uvel_max             =   2.0355101105220E+01
(PID.TID 0000.0001) %MON dynstat_uvel_min             =  -2.0366149554878E+01
(PID.TID 0000.0001) %MON dynstat_uvel_mean            =   4.2211461813217E-01
(PID.TID 0000.0001) %MON dynstat_uvel_sd              =   6.4845789728259E+00
(PID.TID 0000.0001) %MON dynstat_uvel_del2            =   1.2959216743507E-03
(PID.TID 0000.0001) %MON dynstat_vvel_max             =   2.0367245783911E+01
(PID.TID 0000.0001) %MON dynstat_vvel_min             =  -2.0356138887159E+01
(PID.TID 0000.0001) %MON dynstat_vvel_mean            =   4.2356585848886E-01
(PID.TID 0000.0001) %MON dynstat_vvel_sd              =   6.4847210193775E+00
(PID.TID 0000.0001) %MON dynstat_vvel_del2            =   1.2964667707626E-03
(PID.TID 0000.0001) %MON dynstat_wvel_max             =   1.8771512706726E-01
(PID.TID 0000.0001) %MON dynstat_wvel_min             =  -2.3102381321891E-01
(PID.TID 0000.0001) %MON dynstat_wvel_mean            =  -9.5605412857065E-17
(PID.TID 0000.0001) %MON dynstat_wvel_sd              =   6.3632102139224E-02
(PID.TID 0000.0001) %MON dynstat_wvel_del2            =   6.5551067485902E-05
(PID.TID 0000.0001) %MON dynstat_theta_max            =   1.1554813378467E+03
(PID.TID 0000.0001) %MON dynstat_theta_min            =   2.5688604134312E+02
(PID.TID 0000.0001) %MON dynstat_theta_mean           =   3.2789383185531E+02
(PID.TID 0000.0001) %MON dynstat_theta_sd             =   9.0375270158085E+01
(PID.TID 0000.0001) %MON dynstat_theta_del2           =   6.3318589995925E-04
(PID.TID 0000.0001) %MON dynstat_salt_max             =   2.0319399394430E-02
(PID.TID 0000.0001) %MON dynstat_salt_min             =   0.0000000000000E+00
(PID.TID 0000.0001) %MON dynstat_salt_mean            =   1.8537217745377E-03
(PID.TID 0000.0001) %MON dynstat_salt_sd              =   3.8452987362406E-03
(PID.TID 0000.0001) %MON dynstat_salt_del2            =   7.2216461584405E-07
(PID.TID 0000.0001) %MON advcfl_uvel_max              =   6.0757740542909E-02
(PID.TID 0000.0001) %MON advcfl_vvel_max              =   6.0736503101264E-02
(PID.TID 0000.0001) %MON advcfl_wvel_max              =   8.9045581112214E-03
(PID.TID 0000.0001) %MON advcfl_W_hf_max              =   9.2398545582281E-03
(PID.TID 0000.0001) %MON am_eta_mean                  =  -7.8353138057493E+10
(PID.TID 0000.0001) %MON am_uZo_mean                  =   7.8270408057413E+10
(PID.TID 0000.0001) %MON am_tot_mean                  =  -8.2730000080002E+07
(PID.TID 0000.0001) %MON pe_b_mean                    =   4.0901832462277E+00
(PID.TID 0000.0001) %MON ke_max                       =   2.1096646386393E+02
(PID.TID 0000.0001) %MON ke_mean                      =   4.2229479970767E+01
(PID.TID 0000.0001) %MON ke_vol                       =   5.0986421042785E+19
(PID.TID 0000.0001) %MON vort_r_min                   =  -4.7792129313164E-06
(PID.TID 0000.0001) %MON vort_r_max                   =   4.7800628642922E-06
(PID.TID 0000.0001) %MON vort_a_mean                  =   3.5054378985128E-19
(PID.TID 0000.0001) %MON vort_a_sd                    =   8.4556583836635E-05
(PID.TID 0000.0001) %MON vort_p_mean                  =   3.4318954652285E-19
(PID.TID 0000.0001) %MON vort_p_sd                    =   8.4225517437949E-05
(PID.TID 0000.0001) %MON surfExpan_theta_mean         =  -3.9292767015914E+00
(PID.TID 0000.0001) %MON surfExpan_salt_mean          =  -3.7199241199026E-04
(PID.TID 0000.0001) %MON surfExpan_Heat_mean          =  -3.4666158104263E+02
(PID.TID 0000.0001) %MON En_Budget_T2PE_mean          =   4.3543721461089E+01
(PID.TID 0000.0001) // =======================================================
(PID.TID 0000.0001) // End MONITOR dynamic field statistics
(PID.TID 0000.0001) // =======================================================
 cg2d: Sum(rhs),rhsMax =   5.58793544769287E-09  1.47397689453990E+04
(PID.TID 0000.0001)      cg2d_init_res =   5.55608737279024E+04
(PID.TID 0000.0001)      cg2d_iters(min,last) =      -1      13
(PID.TID 0000.0001)      cg2d_last_res =   1.23160962077710E-10
(PID.TID 0000.0001) // =======================================================
(PID.TID 0000.0001) // Begin MONITOR dynamic field statistics
(PID.TID 0000.0001) // =======================================================
(PID.TID 0000.0001) %MON time_tsnumber                =                    18
(PID.TID 0000.0001) %MON time_secondsf                =   6.4800000000000E+03
(PID.TID 0000.0001) %MON dynstat_eta_max              =   1.8385372433791E+03
(PID.TID 0000.0001) %MON dynstat_eta_min              =  -1.3643681259062E+03
(PID.TID 0000.0001) %MON dynstat_eta_mean             =  -9.4259868314751E-13
(PID.TID 0000.0001) %MON dynstat_eta_sd               =   1.0876829874637E+03
(PID.TID 0000.0001) %MON dynstat_eta_del2             =   5.0580827171299E-01
(PID.TID 0000.0001) %MON dynstat_uvel_max             =   2.1373053809605E+01
(PID.TID 0000.0001) %MON dynstat_uvel_min             =  -2.1384993404068E+01
(PID.TID 0000.0001) %MON dynstat_uvel_mean            =   4.6815995191281E-01
(PID.TID 0000.0001) %MON dynstat_uvel_sd              =   6.7931765550926E+00
(PID.TID 0000.0001) %MON dynstat_uvel_del2            =   1.3499941054928E-03
(PID.TID 0000.0001) %MON dynstat_vvel_max             =   2.1386774505278E+01
(PID.TID 0000.0001) %MON dynstat_vvel_min             =  -2.1374054025161E+01
(PID.TID 0000.0001) %MON dynstat_vvel_mean            =   4.6978268947742E-01
(PID.TID 0000.0001) %MON dynstat_vvel_sd              =   6.7933236435865E+00
(PID.TID 0000.0001) %MON dynstat_vvel_del2            =   1.3506015322415E-03
(PID.TID 0000.0001) %MON dynstat_wvel_max             =   1.9756460417295E-01
(PID.TID 0000.0001) %MON dynstat_wvel_min             =  -2.4060881205462E-01
(PID.TID 0000.0001) %MON dynstat_wvel_mean            =  -3.7738978759368E-17
(PID.TID 0000.0001) %MON dynstat_wvel_sd              =   6.6787736101153E-02
(PID.TID 0000.0001) %MON dynstat_wvel_del2            =   6.8407472616079E-05
(PID.TID 0000.0001) %MON dynstat_theta_max            =   1.1555891506373E+03
(PID.TID 0000.0001) %MON dynstat_theta_min            =   2.5698173424089E+02
(PID.TID 0000.0001) %MON dynstat_theta_mean           =   3.2789371781797E+02
(PID.TID 0000.0001) %MON dynstat_theta_sd             =   9.0376667839735E+01
(PID.TID 0000.0001) %MON dynstat_theta_del2           =   6.3934334886421E-04
(PID.TID 0000.0001) %MON dynstat_salt_max             =   2.0319655597118E-02
(PID.TID 0000.0001) %MON dynstat_salt_min             =   0.0000000000000E+00
(PID.TID 0000.0001) %MON dynstat_salt_mean            =   1.8568940426907E-03
(PID.TID 0000.0001) %MON dynstat_salt_sd              =   3.8484450534298E-03
(PID.TID 0000.0001) %MON dynstat_salt_del2            =   7.4351646206421E-07
(PID.TID 0000.0001) %MON advcfl_uvel_max              =   6.4055149635882E-02
(PID.TID 0000.0001) %MON advcfl_vvel_max              =   6.4030705036808E-02
(PID.TID 0000.0001) %MON advcfl_wvel_max              =   9.2740013211632E-03
(PID.TID 0000.0001) %MON advcfl_W_hf_max              =   9.5969611399371E-03
(PID.TID 0000.0001) %MON am_eta_mean                  =  -8.7337418326650E+10
(PID.TID 0000.0001) %MON am_uZo_mean                  =   8.7238760925190E+10
(PID.TID 0000.0001) %MON am_tot_mean                  =  -9.8657401459991E+07
(PID.TID 0000.0001) %MON pe_b_mean                    =   5.0105604574960E+00
(PID.TID 0000.0001) %MON ke_max                       =   2.3278495792536E+02
(PID.TID 0000.0001) %MON ke_mean                      =   4.6368181675688E+01
(PID.TID 0000.0001) %MON ke_vol                       =   5.0986421042785E+19
(PID.TID 0000.0001) %MON vort_r_min                   =  -5.2599698880392E-06
(PID.TID 0000.0001) %MON vort_r_max                   =   5.2605638976841E-06
(PID.TID 0000.0001) %MON vort_a_mean                  =   5.3929813823273E-20
(PID.TID 0000.0001) %MON vort_a_sd                    =   8.4596304230582E-05
(PID.TID 0000.0001) %MON vort_p_mean                  =   5.3929782674434E-20
(PID.TID 0000.0001) %MON vort_p_sd                    =   8.4226900161405E-05
(PID.TID 0000.0001) %MON surfExpan_theta_mean         =  -4.0687440553832E+00
(PID.TID 0000.0001) %MON surfExpan_salt_mean          =  -3.8639525082599E-04
(PID.TID 0000.0001) %MON surfExpan_Heat_mean          =  -3.5921459820231E+02
(PID.TID 0000.0001) %MON En_Budget_T2PE_mean          =   4.5558125055824E+01
(PID.TID 0000.0001) // =======================================================
(PID.TID 0000.0001) // End MONITOR dynamic field statistics
(PID.TID 0000.0001) // =======================================================
 cg2d: Sum(rhs),rhsMax =  -3.72529029846191E-09  1.61447895614704E+04
(PID.TID 0000.0001)      cg2d_init_res =   5.74493610489224E+04
(PID.TID 0000.0001)      cg2d_iters(min,last) =      -1      13
(PID.TID 0000.0001)      cg2d_last_res =   1.30547937761871E-10
(PID.TID 0000.0001) // =======================================================
(PID.TID 0000.0001) // Begin MONITOR dynamic field statistics
(PID.TID 0000.0001) // =======================================================
(PID.TID 0000.0001) %MON time_tsnumber                =                    19
(PID.TID 0000.0001) %MON time_secondsf                =   6.8400000000000E+03
(PID.TID 0000.0001) %MON dynstat_eta_max              =   2.0141141503891E+03
(PID.TID 0000.0001) %MON dynstat_eta_min              =  -1.5003857091763E+03
(PID.TID 0000.0001) %MON dynstat_eta_mean             =   6.8552631501637E-13
(PID.TID 0000.0001) %MON dynstat_eta_sd               =   1.1962124929957E+03
(PID.TID 0000.0001) %MON dynstat_eta_del2             =   5.2940736241233E-01
(PID.TID 0000.0001) %MON dynstat_uvel_max             =   2.2357308357109E+01
(PID.TID 0000.0001) %MON dynstat_uvel_min             =  -2.2370176774382E+01
(PID.TID 0000.0001) %MON dynstat_uvel_mean            =   5.1575484920326E-01
(PID.TID 0000.0001) %MON dynstat_uvel_sd              =   7.0911480708919E+00
(PID.TID 0000.0001) %MON dynstat_uvel_del2            =   1.4016498375041E-03
(PID.TID 0000.0001) %MON dynstat_vvel_max             =   2.2372634154969E+01
(PID.TID 0000.0001) %MON dynstat_vvel_min             =  -2.2358274587971E+01
(PID.TID 0000.0001) %MON dynstat_vvel_mean            =   5.1755487172948E-01
(PID.TID 0000.0001) %MON dynstat_vvel_sd              =   7.0912971837148E+00
(PID.TID 0000.0001) %MON dynstat_vvel_del2            =   1.4023196337913E-03
(PID.TID 0000.0001) %MON dynstat_wvel_max             =   2.0898132495104E-01
(PID.TID 0000.0001) %MON dynstat_wvel_min             =  -2.4920466980676E-01
(PID.TID 0000.0001) %MON dynstat_wvel_mean            =  -8.5541685187900E-17
(PID.TID 0000.0001) %MON dynstat_wvel_sd              =   6.9859111887340E-02
(PID.TID 0000.0001) %MON dynstat_wvel_del2            =   7.1140420562517E-05
(PID.TID 0000.0001) %MON dynstat_theta_max            =   1.1556827116647E+03
(PID.TID 0000.0001) %MON dynstat_theta_min            =   2.5707522334598E+02
(PID.TID 0000.0001) %MON dynstat_theta_mean           =   3.2789341949222E+02
(PID.TID 0000.0001) %MON dynstat_theta_sd             =   9.0378230647365E+01
(PID.TID 0000.0001) %MON dynstat_theta_del2           =   6.4294135380424E-04
(PID.TID 0000.0001) %MON dynstat_salt_max             =   2.0319912878281E-02
(PID.TID 0000.0001) %MON dynstat_salt_min             =   0.0000000000000E+00
(PID.TID 0000.0001) %MON dynstat_salt_mean            =   1.8600709800379E-03
(PID.TID 0000.0001) %MON dynstat_salt_sd              =   3.8517019174117E-03
(PID.TID 0000.0001) %MON dynstat_salt_del2            =   7.6210216290830E-07
(PID.TID 0000.0001) %MON advcfl_uvel_max              =   6.7271625254552E-02
(PID.TID 0000.0001) %MON advcfl_vvel_max              =   6.7244547345607E-02
(PID.TID 0000.0001) %MON advcfl_wvel_max              =   9.6053191788472E-03
(PID.TID 0000.0001) %MON advcfl_W_hf_max              =   9.9121266192251E-03
(PID.TID 0000.0001) %MON am_eta_mean                  =  -9.6667045223242E+10
(PID.TID 0000.0001) %MON am_uZo_mean                  =   9.6550908936839E+10
(PID.TID 0000.0001) %MON am_tot_mean                  =  -1.1613628640353E+08
(PID.TID 0000.0001) %MON pe_b_mean                    =   6.0603583211447E+00
(PID.TID 0000.0001) %MON ke_max                       =   2.5507917392304E+02
(PID.TID 0000.0001) %MON ke_mean                      =   5.0552371410574E+01
(PID.TID 0000.0001) %MON ke_vol                       =   5.0986421042785E+19
(PID.TID 0000.0001) %MON vort_r_min                   =  -5.7539787110055E-06
(PID.TID 0000.0001) %MON vort_r_max                   =   5.7542880020416E-06
(PID.TID 0000.0001) %MON vort_a_mean                  =   1.4217860007954E-19
(PID.TID 0000.0001) %MON vort_a_sd                    =   8.4637587418476E-05
(PID.TID 0000.0001) %MON vort_p_mean                  =   1.3727580196822E-19
(PID.TID 0000.0001) %MON vort_p_sd                    =   8.4228292783643E-05
(PID.TID 0000.0001) %MON surfExpan_theta_mean         =  -4.1948623133521E+00
(PID.TID 0000.0001) %MON surfExpan_salt_mean          =  -3.9968592321213E-04
(PID.TID 0000.0001) %MON surfExpan_Heat_mean          =  -3.7061540045585E+02
(PID.TID 0000.0001) %MON En_Budget_T2PE_mean          =   4.7492549454657E+01
(PID.TID 0000.0001) // =======================================================
(PID.TID 0000.0001) // End MONITOR dynamic field statistics
(PID.TID 0000.0001) // =======================================================
 cg2d: Sum(rhs),rhsMax =  -1.30385160446167E-08  1.75870142734785E+04
(PID.TID 0000.0001)      cg2d_init_res =   5.91654326842884E+04
(PID.TID 0000.0001)      cg2d_iters(min,last) =      -1      13
(PID.TID 0000.0001)      cg2d_last_res =   1.38530392305103E-10
(PID.TID 0000.0001) // =======================================================
(PID.TID 0000.0001) // Begin MONITOR dynamic field statistics
(PID.TID 0000.0001) // =======================================================
(PID.TID 0000.0001) %MON time_tsnumber                =                    20
(PID.TID 0000.0001) %MON time_secondsf                =   7.2000000000000E+03
(PID.TID 0000.0001) %MON dynstat_eta_max              =   2.1944079058121E+03
(PID.TID 0000.0001) %MON dynstat_eta_min              =  -1.6403472609947E+03
(PID.TID 0000.0001) %MON dynstat_eta_mean             =  -2.1422697344262E-13
(PID.TID 0000.0001) %MON dynstat_eta_sd               =   1.3079847633952E+03
(PID.TID 0000.0001) %MON dynstat_eta_del2             =   5.5217305215926E-01
(PID.TID 0000.0001) %MON dynstat_uvel_max             =   2.3335920419139E+01
(PID.TID 0000.0001) %MON dynstat_uvel_min             =  -2.3348078034268E+01
(PID.TID 0000.0001) %MON dynstat_uvel_mean            =   5.6474797438968E-01
(PID.TID 0000.0001) %MON dynstat_uvel_sd              =   7.3782834788598E+00
(PID.TID 0000.0001) %MON dynstat_uvel_del2            =   1.4509162124120E-03
(PID.TID 0000.0001) %MON dynstat_vvel_max             =   2.3349912793484E+01
(PID.TID 0000.0001) %MON dynstat_vvel_min             =  -2.3336433089020E+01
(PID.TID 0000.0001) %MON dynstat_vvel_mean            =   5.6673015432574E-01
(PID.TID 0000.0001) %MON dynstat_vvel_sd              =   7.3784311343033E+00
(PID.TID 0000.0001) %MON dynstat_vvel_del2            =   1.4516462802479E-03
(PID.TID 0000.0001) %MON dynstat_wvel_max             =   2.1993559121594E-01
(PID.TID 0000.0001) %MON dynstat_wvel_min             =  -2.5678961743653E-01
(PID.TID 0000.0001) %MON dynstat_wvel_mean            =   1.0063727669165E-16
(PID.TID 0000.0001) %MON dynstat_wvel_sd              =   7.2842888405327E-02
(PID.TID 0000.0001) %MON dynstat_wvel_del2            =   7.3735502930973E-05
(PID.TID 0000.0001) %MON dynstat_theta_max            =   1.1557693722251E+03
(PID.TID 0000.0001) %MON dynstat_theta_min            =   2.5716650451651E+02
(PID.TID 0000.0001) %MON dynstat_theta_mean           =   3.2789293292477E+02
(PID.TID 0000.0001) %MON dynstat_theta_sd             =   9.0379957086309E+01
(PID.TID 0000.0001) %MON dynstat_theta_del2           =   6.4401064943006E-04
(PID.TID 0000.0001) %MON dynstat_salt_max             =   2.0320171309759E-02
(PID.TID 0000.0001) %MON dynstat_salt_min             =   0.0000000000000E+00
(PID.TID 0000.0001) %MON dynstat_salt_mean            =   1.8632619872802E-03
(PID.TID 0000.0001) %MON dynstat_salt_sd              =   3.8550887774785E-03
(PID.TID 0000.0001) %MON dynstat_salt_del2            =   7.7737032542071E-07
(PID.TID 0000.0001) %MON advcfl_uvel_max              =   7.0401109189485E-02
(PID.TID 0000.0001) %MON advcfl_vvel_max              =   7.0373041805835E-02
(PID.TID 0000.0001) %MON advcfl_wvel_max              =   9.8976726206800E-03
(PID.TID 0000.0001) %MON advcfl_W_hf_max              =   1.0230264502429E-02
(PID.TID 0000.0001) %MON am_eta_mean                  =  -1.0631384433058E+11
(PID.TID 0000.0001) %MON am_uZo_mean                  =   1.0617869110322E+11
(PID.TID 0000.0001) %MON am_tot_mean                  =  -1.3515322735213E+08
(PID.TID 0000.0001) %MON pe_b_mean                    =   7.2458110570994E+00
(PID.TID 0000.0001) %MON ke_max                       =   2.7775305715021E+02
(PID.TID 0000.0001) %MON ke_mean                      =   5.4760218220431E+01
(PID.TID 0000.0001) %MON ke_vol                       =   5.0986421042785E+19
(PID.TID 0000.0001) %MON vort_r_min                   =  -6.2598357073621E-06
(PID.TID 0000.0001) %MON vort_r_max                   =   6.2598365297981E-06
(PID.TID 0000.0001) %MON vort_a_mean                  =   2.3042738633580E-19
(PID.TID 0000.0001) %MON vort_a_sd                    =   8.4680325581519E-05
(PID.TID 0000.0001) %MON vort_p_mean                  =   2.3778128469657E-19
(PID.TID 0000.0001) %MON vort_p_sd                    =   8.4229699944859E-05
(PID.TID 0000.0001) %MON surfExpan_theta_mean         =  -4.3073536713679E+00
(PID.TID 0000.0001) %MON surfExpan_salt_mean          =  -4.1183357126364E-04
(PID.TID 0000.0001) %MON surfExpan_Heat_mean          =  -3.8083707129902E+02
(PID.TID 0000.0001) %MON En_Budget_T2PE_mean          =   4.9344997883407E+01
(PID.TID 0000.0001) // =======================================================
(PID.TID 0000.0001) // End MONITOR dynamic field statistics
(PID.TID 0000.0001) // =======================================================
 cg2d: Sum(rhs),rhsMax =  -1.86264514923096E-08  1.90642844037255E+04
(PID.TID 0000.0001)      cg2d_init_res =   6.07044580441222E+04
(PID.TID 0000.0001)      cg2d_iters(min,last) =      -1      14
(PID.TID 0000.0001)      cg2d_last_res =   7.12721461973399E-12
(PID.TID 0000.0001) // =======================================================
(PID.TID 0000.0001) // Begin MONITOR dynamic field statistics
(PID.TID 0000.0001) // =======================================================
(PID.TID 0000.0001) %MON time_tsnumber                =                    21
(PID.TID 0000.0001) %MON time_secondsf                =   7.5600000000000E+03
(PID.TID 0000.0001) %MON dynstat_eta_max              =   2.3791377824080E+03
(PID.TID 0000.0001) %MON dynstat_eta_min              =  -1.7838026874474E+03
(PID.TID 0000.0001) %MON dynstat_eta_mean             =  -3.8560855219671E-13
(PID.TID 0000.0001) %MON dynstat_eta_sd               =   1.4226655530319E+03
(PID.TID 0000.0001) %MON dynstat_eta_del2             =   5.7413652162906E-01
(PID.TID 0000.0001) %MON dynstat_uvel_max             =   2.4289270771842E+01
(PID.TID 0000.0001) %MON dynstat_uvel_min             =  -2.4302148261015E+01
(PID.TID 0000.0001) %MON dynstat_uvel_mean            =   6.1498495986743E-01
(PID.TID 0000.0001) %MON dynstat_uvel_sd              =   7.6544168718656E+00
(PID.TID 0000.0001) %MON dynstat_uvel_del2            =   1.4977657175422E-03
(PID.TID 0000.0001) %MON dynstat_vvel_max             =   2.4304418033621E+01
(PID.TID 0000.0001) %MON dynstat_vvel_min             =  -2.4289329734484E+01
(PID.TID 0000.0001) %MON dynstat_vvel_mean            =   6.1715319979011E-01
(PID.TID 0000.0001) %MON dynstat_vvel_sd              =   7.6545587313568E+00
(PID.TID 0000.0001) %MON dynstat_vvel_del2            =   1.4985488273463E-03
(PID.TID 0000.0001) %MON dynstat_wvel_max             =   2.3037384698077E-01
(PID.TID 0000.0001) %MON dynstat_wvel_min             =  -2.6335551277335E-01
(PID.TID 0000.0001) %MON dynstat_wvel_mean            =  -3.6732605992451E-16
(PID.TID 0000.0001) %MON dynstat_wvel_sd              =   7.5736103521851E-02
(PID.TID 0000.0001) %MON dynstat_wvel_del2            =   7.6182917076363E-05
(PID.TID 0000.0001) %MON dynstat_theta_max            =   1.1558768602383E+03
(PID.TID 0000.0001) %MON dynstat_theta_min            =   2.5725557482989E+02
(PID.TID 0000.0001) %MON dynstat_theta_mean           =   3.2789225524880E+02
(PID.TID 0000.0001) %MON dynstat_theta_sd             =   9.0381844588318E+01
(PID.TID 0000.0001) %MON dynstat_theta_del2           =   6.4328806259344E-04
(PID.TID 0000.0001) %MON dynstat_salt_max             =   2.0320430974777E-02
(PID.TID 0000.0001) %MON dynstat_salt_min             =   0.0000000000000E+00
(PID.TID 0000.0001) %MON dynstat_salt_mean            =   1.8664771084882E-03
(PID.TID 0000.0001) %MON dynstat_salt_sd              =   3.8586352172922E-03
(PID.TID 0000.0001) %MON dynstat_salt_del2            =   7.8973428945181E-07
(PID.TID 0000.0001) %MON advcfl_uvel_max              =   7.3438160200016E-02
(PID.TID 0000.0001) %MON advcfl_vvel_max              =   7.3409440665814E-02
(PID.TID 0000.0001) %MON advcfl_wvel_max              =   1.0150747815675E-02
(PID.TID 0000.0001) %MON advcfl_W_hf_max              =   1.0596939757487E-02
(PID.TID 0000.0001) %MON am_eta_mean                  =  -1.1624874224653E+11
(PID.TID 0000.0001) %MON am_uZo_mean                  =   1.1609306068296E+11
(PID.TID 0000.0001) %MON am_tot_mean                  =  -1.5568156357516E+08
(PID.TID 0000.0001) %MON pe_b_mean                    =   8.5721007614896E+00
(PID.TID 0000.0001) %MON ke_max                       =   3.0071237893205E+02
(PID.TID 0000.0001) %MON ke_mean                      =   5.8970725796696E+01
(PID.TID 0000.0001) %MON ke_vol                       =   5.0986421042785E+19
(PID.TID 0000.0001) %MON vort_r_min                   =  -6.7760702782081E-06
(PID.TID 0000.0001) %MON vort_r_max                   =   6.7757428062140E-06
(PID.TID 0000.0001) %MON vort_a_mean                  =   5.6381168997058E-20
(PID.TID 0000.0001) %MON vort_a_sd                    =   8.4724405899391E-05
(PID.TID 0000.0001) %MON vort_p_mean                  =   5.6381125678823E-20
(PID.TID 0000.0001) %MON vort_p_sd                    =   8.4231125962263E-05
(PID.TID 0000.0001) %MON surfExpan_theta_mean         =  -4.4059870869772E+00
(PID.TID 0000.0001) %MON surfExpan_salt_mean          =  -4.2281040299311E-04
(PID.TID 0000.0001) %MON surfExpan_Heat_mean          =  -3.8985646583830E+02
(PID.TID 0000.0001) %MON En_Budget_T2PE_mean          =   5.1113673127702E+01
(PID.TID 0000.0001) // =======================================================
(PID.TID 0000.0001) // End MONITOR dynamic field statistics
(PID.TID 0000.0001) // =======================================================
 cg2d: Sum(rhs),rhsMax =   5.58793544769287E-09  2.05746853854381E+04
(PID.TID 0000.0001)      cg2d_init_res =   6.20623680015662E+04
(PID.TID 0000.0001)      cg2d_iters(min,last) =      -1      14
(PID.TID 0000.0001)      cg2d_last_res =   7.55911915244899E-12
(PID.TID 0000.0001) // =======================================================
(PID.TID 0000.0001) // Begin MONITOR dynamic field statistics
(PID.TID 0000.0001) // =======================================================
(PID.TID 0000.0001) %MON time_tsnumber                =                    22
(PID.TID 0000.0001) %MON time_secondsf                =   7.9200000000000E+03
(PID.TID 0000.0001) %MON dynstat_eta_max              =   2.5680448227200E+03
(PID.TID 0000.0001) %MON dynstat_eta_min              =  -1.9303020511381E+03
(PID.TID 0000.0001) %MON dynstat_eta_mean             =  -2.5707236813114E-13
(PID.TID 0000.0001) %MON dynstat_eta_sd               =   1.5399128577771E+03
(PID.TID 0000.0001) %MON dynstat_eta_del2             =   5.9534217176253E-01
(PID.TID 0000.0001) %MON dynstat_uvel_max             =   2.5207495145449E+01
(PID.TID 0000.0001) %MON dynstat_uvel_min             =  -2.5221083162871E+01
(PID.TID 0000.0001) %MON dynstat_uvel_mean            =   6.6630865731759E-01
(PID.TID 0000.0001) %MON dynstat_uvel_sd              =   7.9194246693725E+00
(PID.TID 0000.0001) %MON dynstat_uvel_del2            =   1.5422000189654E-03
(PID.TID 0000.0001) %MON dynstat_vvel_max             =   2.5223701538138E+01
(PID.TID 0000.0001) %MON dynstat_vvel_min             =  -2.5207104329503E+01
(PID.TID 0000.0001) %MON dynstat_vvel_mean            =   6.6866611203414E-01
(PID.TID 0000.0001) %MON dynstat_vvel_sd              =   7.9195560846219E+00
(PID.TID 0000.0001) %MON dynstat_vvel_del2            =   1.5430322702807E-03
(PID.TID 0000.0001) %MON dynstat_wvel_max             =   2.4024145349113E-01
(PID.TID 0000.0001) %MON dynstat_wvel_min             =  -2.6890390520789E-01
(PID.TID 0000.0001) %MON dynstat_wvel_mean            =  -7.2962025601444E-17
(PID.TID 0000.0001) %MON dynstat_wvel_sd              =   7.8536295453388E-02
(PID.TID 0000.0001) %MON dynstat_wvel_del2            =   7.8478790102309E-05
(PID.TID 0000.0001) %MON dynstat_theta_max            =   1.1560570548251E+03
(PID.TID 0000.0001) %MON dynstat_theta_min            =   2.5734243050155E+02
(PID.TID 0000.0001) %MON dynstat_theta_mean           =   3.2789138717116E+02
(PID.TID 0000.0001) %MON dynstat_theta_sd             =   9.0383887921398E+01
(PID.TID 0000.0001) %MON dynstat_theta_del2           =   6.4196125322866E-04
(PID.TID 0000.0001) %MON dynstat_salt_max             =   2.0320691970241E-02
(PID.TID 0000.0001) %MON dynstat_salt_min             =   0.0000000000000E+00
(PID.TID 0000.0001) %MON dynstat_salt_mean            =   1.8697248193852E-03
(PID.TID 0000.0001) %MON dynstat_salt_sd              =   3.8623546496126E-03
(PID.TID 0000.0001) %MON dynstat_salt_del2            =   7.9846979676073E-07
(PID.TID 0000.0001) %MON advcfl_uvel_max              =   7.6377676361862E-02
(PID.TID 0000.0001) %MON advcfl_vvel_max              =   7.6348542220087E-02
(PID.TID 0000.0001) %MON advcfl_wvel_max              =   1.0364604483388E-02
(PID.TID 0000.0001) %MON advcfl_W_hf_max              =   1.0933133613915E-02
(PID.TID 0000.0001) %MON am_eta_mean                  =  -1.2644184767613E+11
(PID.TID 0000.0001) %MON am_uZo_mean                  =   1.2626416607996E+11
(PID.TID 0000.0001) %MON am_tot_mean                  =  -1.7768159617416E+08
(PID.TID 0000.0001) %MON pe_b_mean                    =   1.0043241956891E+01
(PID.TID 0000.0001) %MON ke_max                       =   3.2386460550221E+02
(PID.TID 0000.0001) %MON ke_mean                      =   6.3163868633992E+01
(PID.TID 0000.0001) %MON ke_vol                       =   5.0986421042785E+19
(PID.TID 0000.0001) %MON vort_r_min                   =  -7.3011326718635E-06
(PID.TID 0000.0001) %MON vort_r_max                   =   7.3004615216857E-06
(PID.TID 0000.0001) %MON vort_a_mean                  =   9.8054206951406E-20
(PID.TID 0000.0001) %MON vort_a_sd                    =   8.4769713098988E-05
(PID.TID 0000.0001) %MON vort_p_mean                  =   1.0295683133009E-19
(PID.TID 0000.0001) %MON vort_p_sd                    =   8.4232577114480E-05
(PID.TID 0000.0001) %MON surfExpan_theta_mean         =  -4.4905767521394E+00
(PID.TID 0000.0001) %MON surfExpan_salt_mean          =  -4.3259179527593E-04
(PID.TID 0000.0001) %MON surfExpan_Heat_mean          =  -3.9765412442884E+02
(PID.TID 0000.0001) %MON En_Budget_T2PE_mean          =   5.2796927025800E+01
(PID.TID 0000.0001) // =======================================================
(PID.TID 0000.0001) // End MONITOR dynamic field statistics
(PID.TID 0000.0001) // =======================================================
 cg2d: Sum(rhs),rhsMax =   3.35276126861572E-08  2.21163247924509E+04
(PID.TID 0000.0001)      cg2d_init_res =   6.32356376611937E+04
(PID.TID 0000.0001)      cg2d_iters(min,last) =      -1      14
(PID.TID 0000.0001)      cg2d_last_res =   8.02948633439922E-12
(PID.TID 0000.0001) // =======================================================
(PID.TID 0000.0001) // Begin MONITOR dynamic field statistics
(PID.TID 0000.0001) // =======================================================
(PID.TID 0000.0001) %MON time_tsnumber                =                    23
(PID.TID 0000.0001) %MON time_secondsf                =   8.2800000000000E+03
(PID.TID 0000.0001) %MON dynstat_eta_max              =   2.7638052996387E+03
(PID.TID 0000.0001) %MON dynstat_eta_min              =  -2.0794022507078E+03
(PID.TID 0000.0001) %MON dynstat_eta_mean             =  -7.2837170970490E-13
(PID.TID 0000.0001) %MON dynstat_eta_sd               =   1.6593779358365E+03
(PID.TID 0000.0001) %MON dynstat_eta_del2             =   6.1584602858384E-01
(PID.TID 0000.0001) %MON dynstat_uvel_max             =   2.6143234159177E+01
(PID.TID 0000.0001) %MON dynstat_uvel_min             =  -2.6141020788346E+01
(PID.TID 0000.0001) %MON dynstat_uvel_mean            =   7.1855998116546E-01
(PID.TID 0000.0001) %MON dynstat_uvel_sd              =   8.1732202225930E+00
(PID.TID 0000.0001) %MON dynstat_uvel_del2            =   1.5841192726484E-03
(PID.TID 0000.0001) %MON dynstat_vvel_max             =   2.6132964169902E+01
(PID.TID 0000.0001) %MON dynstat_vvel_min             =  -2.6128025158402E+01
(PID.TID 0000.0001) %MON dynstat_vvel_mean            =   7.2110908396166E-01
(PID.TID 0000.0001) %MON dynstat_vvel_sd              =   8.1733363263154E+00
(PID.TID 0000.0001) %MON dynstat_vvel_del2            =   1.5849928974413E-03
(PID.TID 0000.0001) %MON dynstat_wvel_max             =   2.4951324381387E-01
(PID.TID 0000.0001) %MON dynstat_wvel_min             =  -2.7344379188302E-01
(PID.TID 0000.0001) %MON dynstat_wvel_mean            =   2.2643387255621E-17
(PID.TID 0000.0001) %MON dynstat_wvel_sd              =   8.1241719336065E-02
(PID.TID 0000.0001) %MON dynstat_wvel_del2            =   8.0623668961308E-05
(PID.TID 0000.0001) %MON dynstat_theta_max            =   1.1562276578298E+03
(PID.TID 0000.0001) %MON dynstat_theta_min            =   2.5742707576308E+02
(PID.TID 0000.0001) %MON dynstat_theta_mean           =   3.2789032918582E+02
(PID.TID 0000.0001) %MON dynstat_theta_sd             =   9.0386081874554E+01
(PID.TID 0000.0001) %MON dynstat_theta_del2           =   6.4150576301739E-04
(PID.TID 0000.0001) %MON dynstat_salt_max             =   2.0320954408701E-02
(PID.TID 0000.0001) %MON dynstat_salt_min             =   0.0000000000000E+00
(PID.TID 0000.0001) %MON dynstat_salt_mean            =   1.8730154450159E-03
(PID.TID 0000.0001) %MON dynstat_salt_sd              =   3.8662807351568E-03
(PID.TID 0000.0001) %MON dynstat_salt_del2            =   8.0555645362663E-07
(PID.TID 0000.0001) %MON advcfl_uvel_max              =   7.9214712098325E-02
(PID.TID 0000.0001) %MON advcfl_vvel_max              =   7.9185363257271E-02
(PID.TID 0000.0001) %MON advcfl_wvel_max              =   1.0539589408767E-02
(PID.TID 0000.0001) %MON advcfl_W_hf_max              =   1.1238683534693E-02
(PID.TID 0000.0001) %MON am_eta_mean                  =  -1.3686253514847E+11
(PID.TID 0000.0001) %MON am_uZo_mean                  =   1.3666143594640E+11
(PID.TID 0000.0001) %MON am_tot_mean                  =  -2.0109920207478E+08
(PID.TID 0000.0001) %MON pe_b_mean                    =   1.1661979065109E+01
(PID.TID 0000.0001) %MON ke_max                       =   3.4711868615167E+02
(PID.TID 0000.0001) %MON ke_mean                      =   6.7320641134016E+01
(PID.TID 0000.0001) %MON ke_vol                       =   5.0986421042785E+19
(PID.TID 0000.0001) %MON vort_r_min                   =  -7.8333888389872E-06
(PID.TID 0000.0001) %MON vort_r_max                   =   7.8323636508418E-06
(PID.TID 0000.0001) %MON vort_a_mean                  =   2.1081654494552E-19
(PID.TID 0000.0001) %MON vort_a_sd                    =   8.4816123637542E-05
(PID.TID 0000.0001) %MON vort_p_mean                  =   2.1081635460421E-19
(PID.TID 0000.0001) %MON vort_p_sd                    =   8.4234055666528E-05
(PID.TID 0000.0001) %MON surfExpan_theta_mean         =  -4.5609833975452E+00
(PID.TID 0000.0001) %MON surfExpan_salt_mean          =  -4.4115576730127E-04
(PID.TID 0000.0001) %MON surfExpan_Heat_mean          =  -4.0421447033440E+02
(PID.TID 0000.0001) %MON En_Budget_T2PE_mean          =   5.4393220037593E+01
(PID.TID 0000.0001) // =======================================================
(PID.TID 0000.0001) // End MONITOR dynamic field statistics
(PID.TID 0000.0001) // =======================================================
 cg2d: Sum(rhs),rhsMax =  -3.35276126861572E-08  2.36870841810611E+04
(PID.TID 0000.0001)      cg2d_init_res =   6.42212675354262E+04
(PID.TID 0000.0001)      cg2d_iters(min,last) =      -1      14
(PID.TID 0000.0001)      cg2d_last_res =   8.53813190344795E-12
(PID.TID 0000.0001) // =======================================================
(PID.TID 0000.0001) // Begin MONITOR dynamic field statistics
(PID.TID 0000.0001) // =======================================================
(PID.TID 0000.0001) %MON time_tsnumber                =                    24
(PID.TID 0000.0001) %MON time_secondsf                =   8.6400000000000E+03
(PID.TID 0000.0001) %MON dynstat_eta_max              =   2.9646296026626E+03
(PID.TID 0000.0001) %MON dynstat_eta_min              =  -2.2306660326807E+03
(PID.TID 0000.0001) %MON dynstat_eta_mean             =   2.5707236813114E-13
(PID.TID 0000.0001) %MON dynstat_eta_sd               =   1.7807063353295E+03
(PID.TID 0000.0001) %MON dynstat_eta_del2             =   6.3570894385393E-01
(PID.TID 0000.0001) %MON dynstat_uvel_max             =   2.7062197819362E+01
(PID.TID 0000.0001) %MON dynstat_uvel_min             =  -2.7060023389792E+01
(PID.TID 0000.0001) %MON dynstat_uvel_mean            =   7.7157825994121E-01
(PID.TID 0000.0001) %MON dynstat_uvel_sd              =   8.4157813260113E+00
(PID.TID 0000.0001) %MON dynstat_uvel_del2            =   1.6235477802330E-03
(PID.TID 0000.0001) %MON dynstat_vvel_max             =   2.7051866337114E+01
(PID.TID 0000.0001) %MON dynstat_vvel_min             =  -2.7045826700623E+01
(PID.TID 0000.0001) %MON dynstat_vvel_mean            =   7.7432120074475E-01
(PID.TID 0000.0001) %MON dynstat_vvel_sd              =   8.4158766489352E+00
(PID.TID 0000.0001) %MON dynstat_vvel_del2            =   1.6244561830438E-03
(PID.TID 0000.0001) %MON dynstat_wvel_max             =   2.5816894763270E-01
(PID.TID 0000.0001) %MON dynstat_wvel_min             =  -2.7699105655852E-01
(PID.TID 0000.0001) %MON dynstat_wvel_mean            =   9.3089480939774E-17
(PID.TID 0000.0001) %MON dynstat_wvel_sd              =   8.3849542314665E-02
(PID.TID 0000.0001) %MON dynstat_wvel_del2            =   8.2612950726234E-05
(PID.TID 0000.0001) %MON dynstat_theta_max            =   1.1564137176110E+03
(PID.TID 0000.0001) %MON dynstat_theta_min            =   2.5750951647963E+02
(PID.TID 0000.0001) %MON dynstat_theta_mean           =   3.2788907921835E+02
(PID.TID 0000.0001) %MON dynstat_theta_sd             =   9.0388422324859E+01
(PID.TID 0000.0001) %MON dynstat_theta_del2           =   6.4314654451282E-04
(PID.TID 0000.0001) %MON dynstat_salt_max             =   2.0321218419752E-02
(PID.TID 0000.0001) %MON dynstat_salt_min             =   0.0000000000000E+00
(PID.TID 0000.0001) %MON dynstat_salt_mean            =   1.8763601908908E-03
(PID.TID 0000.0001) %MON dynstat_salt_sd              =   3.8704298718212E-03
(PID.TID 0000.0001) %MON dynstat_salt_del2            =   8.1153623645773E-07
(PID.TID 0000.0001) %MON advcfl_uvel_max              =   8.1944435118214E-02
(PID.TID 0000.0001) %MON advcfl_vvel_max              =   8.1915047042113E-02
(PID.TID 0000.0001) %MON advcfl_wvel_max              =   1.0676314813819E-02
(PID.TID 0000.0001) %MON advcfl_W_hf_max              =   1.1513728860607E-02
(PID.TID 0000.0001) %MON am_eta_mean                  =  -1.4747953153895E+11
(PID.TID 0000.0001) %MON am_uZo_mean                  =   1.4725366585796E+11
(PID.TID 0000.0001) %MON am_tot_mean                  =  -2.2586568098993E+08
(PID.TID 0000.0001) %MON pe_b_mean                    =   1.3429697883934E+01
(PID.TID 0000.0001) %MON ke_max                       =   3.7038494667779E+02
(PID.TID 0000.0001) %MON ke_mean                      =   7.1423630715463E+01
(PID.TID 0000.0001) %MON ke_vol                       =   5.0986421042785E+19
(PID.TID 0000.0001) %MON vort_r_min                   =  -8.3711235227864E-06
(PID.TID 0000.0001) %MON vort_r_max                   =   8.3697393151227E-06
(PID.TID 0000.0001) %MON vort_a_mean                  =   8.8248786256265E-20
(PID.TID 0000.0001) %MON vort_a_sd                    =   8.4863515814849E-05
(PID.TID 0000.0001) %MON vort_p_mean                  =   8.5797347702277E-20
(PID.TID 0000.0001) %MON vort_p_sd                    =   8.4235569550665E-05
(PID.TID 0000.0001) %MON surfExpan_theta_mean         =  -4.6171151181226E+00
(PID.TID 0000.0001) %MON surfExpan_salt_mean          =  -4.4848292350772E-04
(PID.TID 0000.0001) %MON surfExpan_Heat_mean          =  -4.0952582251350E+02
(PID.TID 0000.0001) %MON En_Budget_T2PE_mean          =   5.5901495417235E+01
(PID.TID 0000.0001) // =======================================================
(PID.TID 0000.0001) // End MONITOR dynamic field statistics
(PID.TID 0000.0001) // =======================================================
(PID.TID 0000.0001)   Exporting atmospheric fluxes at iter.        24
(PID.TID 0000.0001)   Importing oceanic fields at iteration        24
 cg2d: Sum(rhs),rhsMax =   1.11758708953857E-08  2.52845150301027E+04
(PID.TID 0000.0001)      cg2d_init_res =   6.50167826238905E+04
(PID.TID 0000.0001)      cg2d_iters(min,last) =      -1      14
(PID.TID 0000.0001)      cg2d_last_res =   9.08417853597690E-12
(PID.TID 0000.0001) // =======================================================
(PID.TID 0000.0001) // Begin MONITOR dynamic field statistics
(PID.TID 0000.0001) // =======================================================
(PID.TID 0000.0001) %MON time_tsnumber                =                    25
(PID.TID 0000.0001) %MON time_secondsf                =   9.0000000000000E+03
(PID.TID 0000.0001) %MON dynstat_eta_max              =   3.1680195981322E+03
(PID.TID 0000.0001) %MON dynstat_eta_min              =  -2.3836740973352E+03
(PID.TID 0000.0001) %MON dynstat_eta_mean             =   4.2845394688523E-13
(PID.TID 0000.0001) %MON dynstat_eta_sd               =   1.9035389257706E+03
(PID.TID 0000.0001) %MON dynstat_eta_del2             =   6.5497892772308E-01
(PID.TID 0000.0001) %MON dynstat_uvel_max             =   2.7946984968176E+01
(PID.TID 0000.0001) %MON dynstat_uvel_min             =  -2.7944921532198E+01
(PID.TID 0000.0001) %MON dynstat_uvel_mean            =   8.2520194753087E-01
(PID.TID 0000.0001) %MON dynstat_uvel_sd              =   8.6471196389452E+00
(PID.TID 0000.0001) %MON dynstat_uvel_del2            =   1.6604628151565E-03
(PID.TID 0000.0001) %MON dynstat_vvel_max             =   2.7936647920106E+01
(PID.TID 0000.0001) %MON dynstat_vvel_min             =  -2.7929565464254E+01
(PID.TID 0000.0001) %MON dynstat_vvel_mean            =   8.2814062317355E-01
(PID.TID 0000.0001) %MON dynstat_vvel_sd              =   8.6471884293084E+00
(PID.TID 0000.0001) %MON dynstat_vvel_del2            =   1.6613986560188E-03
(PID.TID 0000.0001) %MON dynstat_wvel_max             =   2.6619182481133E-01
(PID.TID 0000.0001) %MON dynstat_wvel_min             =  -2.7956923758659E-01
(PID.TID 0000.0001) %MON dynstat_wvel_mean            =   7.2962025601444E-17
(PID.TID 0000.0001) %MON dynstat_wvel_sd              =   8.6358165859887E-02
(PID.TID 0000.0001) %MON dynstat_wvel_del2            =   8.4447217857966E-05
(PID.TID 0000.0001) %MON dynstat_theta_max            =   1.1566041307123E+03
(PID.TID 0000.0001) %MON dynstat_theta_min            =   2.5758952489598E+02
(PID.TID 0000.0001) %MON dynstat_theta_mean           =   3.2788762939994E+02
(PID.TID 0000.0001) %MON dynstat_theta_sd             =   9.0390908815556E+01
(PID.TID 0000.0001) %MON dynstat_theta_del2           =   6.4752985935356E-04
(PID.TID 0000.0001) %MON dynstat_salt_max             =   2.0321484463744E-02
(PID.TID 0000.0001) %MON dynstat_salt_min             =   0.0000000000000E+00
(PID.TID 0000.0001) %MON dynstat_salt_mean            =   1.8797640316203E-03
(PID.TID 0000.0001) %MON dynstat_salt_sd              =   3.8748336750229E-03
(PID.TID 0000.0001) %MON dynstat_salt_del2            =   8.1730792996446E-07
(PID.TID 0000.0001) %MON advcfl_uvel_max              =   8.4562116293071E-02
(PID.TID 0000.0001) %MON advcfl_vvel_max              =   8.4532832293934E-02
(PID.TID 0000.0001) %MON advcfl_wvel_max              =   1.0775687958370E-02
(PID.TID 0000.0001) %MON advcfl_W_hf_max              =   1.1758623698360E-02
(PID.TID 0000.0001) %MON am_eta_mean                  =  -1.5826100504404E+11
(PID.TID 0000.0001) %MON am_uZo_mean                  =   1.5800911608933E+11
(PID.TID 0000.0001) %MON am_tot_mean                  =  -2.5188895470990E+08
(PID.TID 0000.0001) %MON pe_b_mean                    =   1.5346352147861E+01
(PID.TID 0000.0001) %MON ke_max                       =   3.9357529616943E+02
(PID.TID 0000.0001) %MON ke_mean                      =   7.5456660464299E+01
(PID.TID 0000.0001) %MON ke_vol                       =   5.0986421042785E+19
(PID.TID 0000.0001) %MON vort_r_min                   =  -8.9125507482316E-06
(PID.TID 0000.0001) %MON vort_r_max                   =   8.9108081473867E-06
(PID.TID 0000.0001) %MON vort_a_mean                  =  -7.8443365561125E-20
(PID.TID 0000.0001) %MON vort_a_sd                    =   8.4911760610090E-05
(PID.TID 0000.0001) %MON vort_p_mean                  =  -8.3345989078532E-20
(PID.TID 0000.0001) %MON vort_p_sd                    =   8.4237123055696E-05
(PID.TID 0000.0001) %MON surfExpan_theta_mean         =  -4.6589279933198E+00
(PID.TID 0000.0001) %MON surfExpan_salt_mean          =  -4.5455963205412E-04
(PID.TID 0000.0001) %MON surfExpan_Heat_mean          =  -4.1358063480234E+02
(PID.TID 0000.0001) %MON En_Budget_T2PE_mean          =   5.7320726371901E+01
(PID.TID 0000.0001) // =======================================================
(PID.TID 0000.0001) // End MONITOR dynamic field statistics
(PID.TID 0000.0001) // =======================================================
 cg2d: Sum(rhs),rhsMax =   9.31322574615479E-09  2.69050320231321E+04
(PID.TID 0000.0001)      cg2d_init_res =   6.56202557557269E+04
(PID.TID 0000.0001)      cg2d_iters(min,last) =      -1      14
(PID.TID 0000.0001)      cg2d_last_res =   9.66529884056879E-12
(PID.TID 0000.0001) // =======================================================
(PID.TID 0000.0001) // Begin MONITOR dynamic field statistics
(PID.TID 0000.0001) // =======================================================
(PID.TID 0000.0001) %MON time_tsnumber                =                    26
(PID.TID 0000.0001) %MON time_secondsf                =   9.3600000000000E+03
(PID.TID 0000.0001) %MON dynstat_eta_max              =   3.3731423460284E+03
(PID.TID 0000.0001) %MON dynstat_eta_min              =  -2.5380244296509E+03
(PID.TID 0000.0001) %MON dynstat_eta_mean             =   2.5707236813114E-13
(PID.TID 0000.0001) %MON dynstat_eta_sd               =   2.0275129571405E+03
(PID.TID 0000.0001) %MON dynstat_eta_del2             =   6.7368395660317E-01
(PID.TID 0000.0001) %MON dynstat_uvel_max             =   2.8796068086560E+01
(PID.TID 0000.0001) %MON dynstat_uvel_min             =  -2.8794176330669E+01
(PID.TID 0000.0001) %MON dynstat_uvel_mean            =   8.7926926462506E-01
(PID.TID 0000.0001) %MON dynstat_uvel_sd              =   8.8672897948417E+00
(PID.TID 0000.0001) %MON dynstat_uvel_del2            =   1.6948646659828E-03
(PID.TID 0000.0001) %MON dynstat_vvel_max             =   2.8785767128010E+01
(PID.TID 0000.0001) %MON dynstat_vvel_min             =  -2.8777720057905E+01
(PID.TID 0000.0001) %MON dynstat_vvel_mean            =   8.8240499727667E-01
(PID.TID 0000.0001) %MON dynstat_vvel_sd              =   8.8673268062299E+00
(PID.TID 0000.0001) %MON dynstat_vvel_del2            =   1.6958069089851E-03
(PID.TID 0000.0001) %MON dynstat_wvel_max             =   2.7356738643957E-01
(PID.TID 0000.0001) %MON dynstat_wvel_min             =  -2.8120865591282E-01
(PID.TID 0000.0001) %MON dynstat_wvel_mean            =   7.7993889436027E-17
(PID.TID 0000.0001) %MON dynstat_wvel_sd              =   8.8766022233284E-02
(PID.TID 0000.0001) %MON dynstat_wvel_del2            =   8.6127798798939E-05
(PID.TID 0000.0001) %MON dynstat_theta_max            =   1.1567766537196E+03
(PID.TID 0000.0001) %MON dynstat_theta_min            =   2.5766729019956E+02
(PID.TID 0000.0001) %MON dynstat_theta_mean           =   3.2788599197935E+02
(PID.TID 0000.0001) %MON dynstat_theta_sd             =   9.0393528679547E+01
(PID.TID 0000.0001) %MON dynstat_theta_del2           =   6.5462777553419E-04
(PID.TID 0000.0001) %MON dynstat_salt_max             =   2.0321752394606E-02
(PID.TID 0000.0001) %MON dynstat_salt_min             =   0.0000000000000E+00
(PID.TID 0000.0001) %MON dynstat_salt_mean            =   1.8832515484628E-03
(PID.TID 0000.0001) %MON dynstat_salt_sd              =   3.8795318974229E-03
(PID.TID 0000.0001) %MON dynstat_salt_del2            =   8.2284154063961E-07
(PID.TID 0000.0001) %MON advcfl_uvel_max              =   8.7063155288953E-02
(PID.TID 0000.0001) %MON advcfl_vvel_max              =   8.7034073835134E-02
(PID.TID 0000.0001) %MON advcfl_wvel_max              =   1.0855860869083E-02
(PID.TID 0000.0001) %MON advcfl_W_hf_max              =   1.1974141330100E-02
(PID.TID 0000.0001) %MON am_eta_mean                  =  -1.6917465668956E+11
(PID.TID 0000.0001) %MON am_uZo_mean                  =   1.6889559265298E+11
(PID.TID 0000.0001) %MON am_tot_mean                  =  -2.7906403657278E+08
(PID.TID 0000.0001) %MON pe_b_mean                    =   1.7410406526043E+01
(PID.TID 0000.0001) %MON ke_max                       =   4.1660374592602E+02
(PID.TID 0000.0001) %MON ke_mean                      =   7.9405033006770E+01
(PID.TID 0000.0001) %MON ke_vol                       =   5.0986421042785E+19
(PID.TID 0000.0001) %MON vort_r_min                   =  -9.4558291985961E-06
(PID.TID 0000.0001) %MON vort_r_max                   =   9.4537347689277E-06
(PID.TID 0000.0001) %MON vort_a_mean                  =   1.6669215181739E-19
(PID.TID 0000.0001) %MON vort_a_sd                    =   8.4960723672852E-05
(PID.TID 0000.0001) %MON vort_p_mean                  =   1.6669196631791E-19
(PID.TID 0000.0001) %MON vort_p_sd                    =   8.4238718485089E-05
(PID.TID 0000.0001) %MON surfExpan_theta_mean         =  -4.6864156122445E+00
(PID.TID 0000.0001) %MON surfExpan_salt_mean          =  -4.5937145351708E-04
(PID.TID 0000.0001) %MON surfExpan_Heat_mean          =  -4.1637443742334E+02
(PID.TID 0000.0001) %MON En_Budget_T2PE_mean          =   5.8649990087924E+01
(PID.TID 0000.0001) // =======================================================
(PID.TID 0000.0001) // End MONITOR dynamic field statistics
(PID.TID 0000.0001) // =======================================================
 cg2d: Sum(rhs),rhsMax =   7.45058059692383E-09  2.85443093997030E+04
(PID.TID 0000.0001)      cg2d_init_res =   6.60303276587866E+04
(PID.TID 0000.0001)      cg2d_iters(min,last) =      -1      14
(PID.TID 0000.0001)      cg2d_last_res =   1.02790108534784E-11
(PID.TID 0000.0001) // =======================================================
(PID.TID 0000.0001) // Begin MONITOR dynamic field statistics
(PID.TID 0000.0001) // =======================================================
(PID.TID 0000.0001) %MON time_tsnumber                =                    27
(PID.TID 0000.0001) %MON time_secondsf                =   9.7200000000000E+03
(PID.TID 0000.0001) %MON dynstat_eta_max              =   3.5794079800511E+03
(PID.TID 0000.0001) %MON dynstat_eta_min              =  -2.6933320216746E+03
(PID.TID 0000.0001) %MON dynstat_eta_mean             =   8.5690789377047E-14
(PID.TID 0000.0001) %MON dynstat_eta_sd               =   2.1522631087876E+03
(PID.TID 0000.0001) %MON dynstat_eta_del2             =   6.9183228690299E-01
(PID.TID 0000.0001) %MON dynstat_uvel_max             =   2.9607958541454E+01
(PID.TID 0000.0001) %MON dynstat_uvel_min             =  -2.9606285427833E+01
(PID.TID 0000.0001) %MON dynstat_uvel_mean            =   9.3361876072399E-01
(PID.TID 0000.0001) %MON dynstat_uvel_sd              =   9.0764004103480E+00
(PID.TID 0000.0001) %MON dynstat_uvel_del2            =   1.7268265475340E-03
(PID.TID 0000.0001) %MON dynstat_vvel_max             =   2.9597719059640E+01
(PID.TID 0000.0001) %MON dynstat_vvel_min             =  -2.9588801725845E+01
(PID.TID 0000.0001) %MON dynstat_vvel_mean            =   9.3695236214453E-01
(PID.TID 0000.0001) %MON dynstat_vvel_sd              =   9.0764000570138E+00
(PID.TID 0000.0001) %MON dynstat_vvel_del2            =   1.7277822738870E-03
(PID.TID 0000.0001) %MON dynstat_wvel_max             =   2.8028663229762E-01
(PID.TID 0000.0001) %MON dynstat_wvel_min             =  -2.8194718208990E-01
(PID.TID 0000.0001) %MON dynstat_wvel_mean            =   1.2579659586456E-16
(PID.TID 0000.0001) %MON dynstat_wvel_sd              =   9.1071564283315E-02
(PID.TID 0000.0001) %MON dynstat_wvel_del2            =   8.7658825399855E-05
(PID.TID 0000.0001) %MON dynstat_theta_max            =   1.1569270626410E+03
(PID.TID 0000.0001) %MON dynstat_theta_min            =   2.5774287553441E+02
(PID.TID 0000.0001) %MON dynstat_theta_mean           =   3.2788417089246E+02
(PID.TID 0000.0001) %MON dynstat_theta_sd             =   9.0396273181067E+01
(PID.TID 0000.0001) %MON dynstat_theta_del2           =   6.6380105740843E-04
(PID.TID 0000.0001) %MON dynstat_salt_max             =   2.0322022395413E-02
(PID.TID 0000.0001) %MON dynstat_salt_min             =   0.0000000000000E+00
(PID.TID 0000.0001) %MON dynstat_salt_mean            =   1.8868400430127E-03
(PID.TID 0000.0001) %MON dynstat_salt_sd              =   3.8845647702582E-03
(PID.TID 0000.0001) %MON dynstat_salt_del2            =   8.2798680791292E-07
(PID.TID 0000.0001) %MON advcfl_uvel_max              =   8.9443129982965E-02
(PID.TID 0000.0001) %MON advcfl_vvel_max              =   8.9414297885290E-02
(PID.TID 0000.0001) %MON advcfl_wvel_max              =   1.0926055896528E-02
(PID.TID 0000.0001) %MON advcfl_W_hf_max              =   1.2149592425436E-02
(PID.TID 0000.0001) %MON am_eta_mean                  =  -1.8018781549393E+11
(PID.TID 0000.0001) %MON am_uZo_mean                  =   1.7988055592528E+11
(PID.TID 0000.0001) %MON am_tot_mean                  =  -3.0725956865585E+08
(PID.TID 0000.0001) %MON pe_b_mean                    =   1.9618796324294E+01
(PID.TID 0000.0001) %MON ke_max                       =   4.3938715885153E+02
(PID.TID 0000.0001) %MON ke_mean                      =   8.3255803061813E+01
(PID.TID 0000.0001) %MON ke_vol                       =   5.0986421042785E+19
(PID.TID 0000.0001) %MON vort_r_min                   =  -9.9990815006608E-06
(PID.TID 0000.0001) %MON vort_r_max                   =   9.9966472833901E-06
(PID.TID 0000.0001) %MON vort_a_mean                  =  -2.5248958289987E-19
(PID.TID 0000.0001) %MON vort_a_sd                    =   8.5010270894052E-05
(PID.TID 0000.0001) %MON vort_p_mean                  =  -2.5494063597472E-19
(PID.TID 0000.0001) %MON vort_p_sd                    =   8.4240361264902E-05
(PID.TID 0000.0001) %MON surfExpan_theta_mean         =  -4.6996180451755E+00
(PID.TID 0000.0001) %MON surfExpan_salt_mean          =  -4.6290998590386E-04
(PID.TID 0000.0001) %MON surfExpan_Heat_mean          =  -4.1790680673223E+02
(PID.TID 0000.0001) %MON En_Budget_T2PE_mean          =   5.9888630104599E+01
(PID.TID 0000.0001) // =======================================================
(PID.TID 0000.0001) // End MONITOR dynamic field statistics
(PID.TID 0000.0001) // =======================================================
 cg2d: Sum(rhs),rhsMax =   3.72529029846191E-08  3.01970510025617E+04
(PID.TID 0000.0001)      cg2d_init_res =   6.62462308481334E+04
(PID.TID 0000.0001)      cg2d_iters(min,last) =      -1      14
(PID.TID 0000.0001)      cg2d_last_res =   1.09228298334768E-11
(PID.TID 0000.0001) // =======================================================
(PID.TID 0000.0001) // Begin MONITOR dynamic field statistics
(PID.TID 0000.0001) // =======================================================
(PID.TID 0000.0001) %MON time_tsnumber                =                    28
(PID.TID 0000.0001) %MON time_secondsf                =   1.0080000000000E+04
(PID.TID 0000.0001) %MON dynstat_eta_max              =   3.7861796954382E+03
(PID.TID 0000.0001) %MON dynstat_eta_min              =  -2.8492264325132E+03
(PID.TID 0000.0001) %MON dynstat_eta_mean             =   1.4567434194098E-12
(PID.TID 0000.0001) %MON dynstat_eta_sd               =   2.2774225498213E+03
(PID.TID 0000.0001) %MON dynstat_eta_del2             =   7.0941468034511E-01
(PID.TID 0000.0001) %MON dynstat_uvel_max             =   3.0381233843145E+01
(PID.TID 0000.0001) %MON dynstat_uvel_min             =  -3.0379811839016E+01
(PID.TID 0000.0001) %MON dynstat_uvel_mean            =   9.8808982774654E-01
(PID.TID 0000.0001) %MON dynstat_uvel_sd              =   9.2745922954445E+00
(PID.TID 0000.0001) %MON dynstat_uvel_del2            =   1.7565137170746E-03
(PID.TID 0000.0001) %MON dynstat_vvel_max             =   3.0371066677457E+01
(PID.TID 0000.0001) %MON dynstat_vvel_min             =  -3.0361384864012E+01
(PID.TID 0000.0001) %MON dynstat_vvel_mean            =   9.9162193568221E-01
(PID.TID 0000.0001) %MON dynstat_vvel_sd              =   9.2745495423473E+00
(PID.TID 0000.0001) %MON dynstat_vvel_del2            =   1.7574616640520E-03
(PID.TID 0000.0001) %MON dynstat_wvel_max             =   2.8635917370278E-01
(PID.TID 0000.0001) %MON dynstat_wvel_min             =  -2.8183185485840E-01
(PID.TID 0000.0001) %MON dynstat_wvel_mean            =   3.0442776199223E-16
(PID.TID 0000.0001) %MON dynstat_wvel_sd              =   9.3274079116748E-02
(PID.TID 0000.0001) %MON dynstat_wvel_del2            =   8.9047534404336E-05
(PID.TID 0000.0001) %MON dynstat_theta_max            =   1.1570576135954E+03
(PID.TID 0000.0001) %MON dynstat_theta_min            =   2.5781631355830E+02
(PID.TID 0000.0001) %MON dynstat_theta_mean           =   3.2788217017257E+02
(PID.TID 0000.0001) %MON dynstat_theta_sd             =   9.0399134624070E+01
(PID.TID 0000.0001) %MON dynstat_theta_del2           =   6.7401980969736E-04
(PID.TID 0000.0001) %MON dynstat_salt_max             =   2.0322294666215E-02
(PID.TID 0000.0001) %MON dynstat_salt_min             =   0.0000000000000E+00
(PID.TID 0000.0001) %MON dynstat_salt_mean            =   1.8905434902534E-03
(PID.TID 0000.0001) %MON dynstat_salt_sd              =   3.8899659559653E-03
(PID.TID 0000.0001) %MON dynstat_salt_del2            =   8.3303988631344E-07
(PID.TID 0000.0001) %MON advcfl_uvel_max              =   9.1697877713653E-02
(PID.TID 0000.0001) %MON advcfl_vvel_max              =   9.1669296029836E-02
(PID.TID 0000.0001) %MON advcfl_wvel_max              =   1.1037398558137E-02
(PID.TID 0000.0001) %MON advcfl_W_hf_max              =   1.2298256792318E-02
(PID.TID 0000.0001) %MON am_eta_mean                  =  -1.9126753311108E+11
(PID.TID 0000.0001) %MON am_uZo_mean                  =   1.9093120660562E+11
(PID.TID 0000.0001) %MON am_tot_mean                  =  -3.3632650546234E+08
(PID.TID 0000.0001) %MON pe_b_mean                    =   2.1966904814326E+01
(PID.TID 0000.0001) %MON ke_max                       =   4.6184620095024E+02
(PID.TID 0000.0001) %MON ke_mean                      =   8.6997483515781E+01
(PID.TID 0000.0001) %MON ke_vol                       =   5.0986421042785E+19
(PID.TID 0000.0001) %MON vort_r_min                   =  -1.0540412924327E-05
(PID.TID 0000.0001) %MON vort_r_max                   =   1.0537656076222E-05
(PID.TID 0000.0001) %MON vort_a_mean                  =   1.5443537594846E-19
(PID.TID 0000.0001) %MON vort_a_sd                    =   8.5060265390003E-05
(PID.TID 0000.0001) %MON vort_p_mean                  =   1.5688653370039E-19
(PID.TID 0000.0001) %MON vort_p_sd                    =   8.4242056625462E-05
(PID.TID 0000.0001) %MON surfExpan_theta_mean         =  -4.6986196725323E+00
(PID.TID 0000.0001) %MON surfExpan_salt_mean          =  -4.6516813105039E-04
(PID.TID 0000.0001) %MON surfExpan_Heat_mean          =  -4.1818120993013E+02
(PID.TID 0000.0001) %MON En_Budget_T2PE_mean          =   6.1036031595445E+01
(PID.TID 0000.0001) // =======================================================
(PID.TID 0000.0001) // End MONITOR dynamic field statistics
(PID.TID 0000.0001) // =======================================================
 cg2d: Sum(rhs),rhsMax =  -1.49011611938477E-08  3.18570559847856E+04
(PID.TID 0000.0001)      cg2d_init_res =   6.62678163101141E+04
(PID.TID 0000.0001)      cg2d_iters(min,last) =      -1      14
(PID.TID 0000.0001)      cg2d_last_res =   1.15933846087779E-11
(PID.TID 0000.0001) // =======================================================
(PID.TID 0000.0001) // Begin MONITOR dynamic field statistics
(PID.TID 0000.0001) // =======================================================
(PID.TID 0000.0001) %MON time_tsnumber                =                    29
(PID.TID 0000.0001) %MON time_secondsf                =   1.0440000000000E+04
(PID.TID 0000.0001) %MON dynstat_eta_max              =   3.9927963010194E+03
(PID.TID 0000.0001) %MON dynstat_eta_min              =  -3.0053476853441E+03
(PID.TID 0000.0001) %MON dynstat_eta_mean             =  -6.8552631501637E-13
(PID.TID 0000.0001) %MON dynstat_eta_sd               =   2.4026240245572E+03
(PID.TID 0000.0001) %MON dynstat_eta_del2             =   7.2640742207204E-01
(PID.TID 0000.0001) %MON dynstat_uvel_max             =   3.1114564378852E+01
(PID.TID 0000.0001) %MON dynstat_uvel_min             =  -3.1113412800429E+01
(PID.TID 0000.0001) %MON dynstat_uvel_mean            =   1.0425228839822E+00
(PID.TID 0000.0001) %MON dynstat_uvel_sd              =   9.4620620009985E+00
(PID.TID 0000.0001) %MON dynstat_uvel_del2            =   1.7840766042391E-03
(PID.TID 0000.0001) %MON dynstat_vvel_max             =   3.1104467902270E+01
(PID.TID 0000.0001) %MON dynstat_vvel_min             =  -3.1094128494900E+01
(PID.TID 0000.0001) %MON dynstat_vvel_mean            =   1.0462542654120E+00
(PID.TID 0000.0001) %MON dynstat_vvel_sd              =   9.4619727981380E+00
(PID.TID 0000.0001) %MON dynstat_vvel_del2            =   1.7850064922451E-03
(PID.TID 0000.0001) %MON dynstat_wvel_max             =   2.9185194838492E-01
(PID.TID 0000.0001) %MON dynstat_wvel_min             =  -2.8196741027409E-01
(PID.TID 0000.0001) %MON dynstat_wvel_mean            =   2.0379048530059E-16
(PID.TID 0000.0001) %MON dynstat_wvel_sd              =   9.5372672339236E-02
(PID.TID 0000.0001) %MON dynstat_wvel_del2            =   9.0300659536342E-05
(PID.TID 0000.0001) %MON dynstat_theta_max            =   1.1571643855636E+03
(PID.TID 0000.0001) %MON dynstat_theta_min            =   2.5788763933621E+02
(PID.TID 0000.0001) %MON dynstat_theta_mean           =   3.2787999389508E+02
(PID.TID 0000.0001) %MON dynstat_theta_sd             =   9.0402105437012E+01
(PID.TID 0000.0001) %MON dynstat_theta_del2           =   6.8408975038025E-04
(PID.TID 0000.0001) %MON dynstat_salt_max             =   2.0322569423850E-02
(PID.TID 0000.0001) %MON dynstat_salt_min             =   0.0000000000000E+00
(PID.TID 0000.0001) %MON dynstat_salt_mean            =   1.8943741676614E-03
(PID.TID 0000.0001) %MON dynstat_salt_sd              =   3.8957571052415E-03
(PID.TID 0000.0001) %MON dynstat_salt_del2            =   8.3695089128517E-07
(PID.TID 0000.0001) %MON advcfl_uvel_max              =   9.3857589456467E-02
(PID.TID 0000.0001) %MON advcfl_vvel_max              =   9.3827349237268E-02
(PID.TID 0000.0001) %MON advcfl_wvel_max              =   1.1249111500918E-02
(PID.TID 0000.0001) %MON advcfl_W_hf_max              =   1.2415106339903E-02
(PID.TID 0000.0001) %MON am_eta_mean                  =  -2.0238067967867E+11
(PID.TID 0000.0001) %MON am_uZo_mean                  =   2.0201458745948E+11
(PID.TID 0000.0001) %MON am_tot_mean                  =  -3.6609221918735E+08
(PID.TID 0000.0001) %MON pe_b_mean                    =   2.4448558951438E+01
(PID.TID 0000.0001) %MON ke_max                       =   4.8390630493311E+02
(PID.TID 0000.0001) %MON ke_mean                      =   9.0620524247650E+01
(PID.TID 0000.0001) %MON ke_vol                       =   5.0986421042785E+19
(PID.TID 0000.0001) %MON vort_r_min                   =  -1.1077927615809E-05
(PID.TID 0000.0001) %MON vort_r_max                   =   1.1074869180135E-05
(PID.TID 0000.0001) %MON vort_a_mean                  =  -3.1867617259207E-20
(PID.TID 0000.0001) %MON vort_a_sd                    =   8.5110567631752E-05
(PID.TID 0000.0001) %MON vort_p_mean                  =  -2.6964870962990E-20
(PID.TID 0000.0001) %MON vort_p_sd                    =   8.4243809335569E-05
(PID.TID 0000.0001) %MON surfExpan_theta_mean         =  -4.6835477825886E+00
(PID.TID 0000.0001) %MON surfExpan_salt_mean          =  -4.6614144530504E-04
(PID.TID 0000.0001) %MON surfExpan_Heat_mean          =  -4.1720487705308E+02
(PID.TID 0000.0001) %MON En_Budget_T2PE_mean          =   6.2091880135155E+01
(PID.TID 0000.0001) // =======================================================
(PID.TID 0000.0001) // End MONITOR dynamic field statistics
(PID.TID 0000.0001) // =======================================================
 cg2d: Sum(rhs),rhsMax =   7.45058059692383E-09  3.35173925039933E+04
(PID.TID 0000.0001)      cg2d_init_res =   6.60955670700780E+04
(PID.TID 0000.0001)      cg2d_iters(min,last) =      -1      14
(PID.TID 0000.0001)      cg2d_last_res =   1.22874546856070E-11
(PID.TID 0000.0001) // =======================================================
(PID.TID 0000.0001) // Begin MONITOR dynamic field statistics
(PID.TID 0000.0001) // =======================================================
(PID.TID 0000.0001) %MON time_tsnumber                =                    30
(PID.TID 0000.0001) %MON time_secondsf                =   1.0800000000000E+04
(PID.TID 0000.0001) %MON dynstat_eta_max              =   4.1986396867157E+03
(PID.TID 0000.0001) %MON dynstat_eta_min              =  -3.1613412656030E+03
(PID.TID 0000.0001) %MON dynstat_eta_mean             =  -9.4259868314751E-13
(PID.TID 0000.0001) %MON dynstat_eta_sd               =   2.5275009468874E+03
(PID.TID 0000.0001) %MON dynstat_eta_del2             =   7.4277841218481E-01
(PID.TID 0000.0001) %MON dynstat_uvel_max             =   3.1806740219394E+01
(PID.TID 0000.0001) %MON dynstat_uvel_min             =  -3.1805866334785E+01
(PID.TID 0000.0001) %MON dynstat_uvel_mean            =   1.0967602984413E+00
(PID.TID 0000.0001) %MON dynstat_uvel_sd              =   9.6390389284993E+00
(PID.TID 0000.0001) %MON dynstat_uvel_del2            =   1.8096723521076E-03
(PID.TID 0000.0001) %MON dynstat_vvel_max             =   3.1796703038700E+01
(PID.TID 0000.0001) %MON dynstat_vvel_min             =  -3.1785814728943E+01
(PID.TID 0000.0001) %MON dynstat_vvel_mean            =   1.1006915161886E+00
(PID.TID 0000.0001) %MON dynstat_vvel_sd              =   9.6389000687925E+00
(PID.TID 0000.0001) %MON dynstat_vvel_del2            =   1.8105701129452E-03
(PID.TID 0000.0001) %MON dynstat_wvel_max             =   2.9673056774264E-01
(PID.TID 0000.0001) %MON dynstat_wvel_min             =  -2.8146199895815E-01
(PID.TID 0000.0001) %MON dynstat_wvel_mean            =  -2.5662505556370E-16
(PID.TID 0000.0001) %MON dynstat_wvel_sd              =   9.7367206391114E-02
(PID.TID 0000.0001) %MON dynstat_wvel_del2            =   9.1425955623360E-05
(PID.TID 0000.0001) %MON dynstat_theta_max            =   1.1572621526534E+03
(PID.TID 0000.0001) %MON dynstat_theta_min            =   2.5795689272375E+02
(PID.TID 0000.0001) %MON dynstat_theta_mean           =   3.2787764815398E+02
(PID.TID 0000.0001) %MON dynstat_theta_sd             =   9.0405177108475E+01
(PID.TID 0000.0001) %MON dynstat_theta_del2           =   6.9293318086963E-04
(PID.TID 0000.0001) %MON dynstat_salt_max             =   2.0468280097699E-02
(PID.TID 0000.0001) %MON dynstat_salt_min             =   0.0000000000000E+00
(PID.TID 0000.0001) %MON dynstat_salt_mean            =   1.8983424452637E-03
(PID.TID 0000.0001) %MON dynstat_salt_sd              =   3.9019659383488E-03
(PID.TID 0000.0001) %MON dynstat_salt_del2            =   8.4067907708063E-07
(PID.TID 0000.0001) %MON advcfl_uvel_max              =   9.5966592309416E-02
(PID.TID 0000.0001) %MON advcfl_vvel_max              =   9.5936559466538E-02
(PID.TID 0000.0001) %MON advcfl_wvel_max              =   1.1437152503999E-02
(PID.TID 0000.0001) %MON advcfl_W_hf_max              =   1.2798567957901E-02
(PID.TID 0000.0001) %MON am_eta_mean                  =  -2.1349404160120E+11
(PID.TID 0000.0001) %MON am_uZo_mean                  =   2.1309767993306E+11
(PID.TID 0000.0001) %MON am_tot_mean                  =  -3.9636166813968E+08
(PID.TID 0000.0001) %MON pe_b_mean                    =   2.7056043539086E+01
(PID.TID 0000.0001) %MON ke_max                       =   5.0549858247322E+02
(PID.TID 0000.0001) %MON ke_mean                      =   9.4116935483819E+01
(PID.TID 0000.0001) %MON ke_vol                       =   5.0986421042785E+19
(PID.TID 0000.0001) %MON vort_r_min                   =  -1.1609742610897E-05
(PID.TID 0000.0001) %MON vort_r_max                   =   1.1606406609309E-05
(PID.TID 0000.0001) %MON vort_a_mean                  =   1.0540827247276E-19
(PID.TID 0000.0001) %MON vort_a_sd                    =   8.5161034030603E-05
(PID.TID 0000.0001) %MON vort_p_mean                  =   1.0295677217947E-19
(PID.TID 0000.0001) %MON vort_p_sd                    =   8.4245621927804E-05
(PID.TID 0000.0001) %MON surfExpan_theta_mean         =  -4.6545700005461E+00
(PID.TID 0000.0001) %MON surfExpan_salt_mean          =  -4.6582822461065E-04
(PID.TID 0000.0001) %MON surfExpan_Heat_mean          =  -4.1498866831838E+02
(PID.TID 0000.0001) %MON En_Budget_T2PE_mean          =   6.3055892664853E+01
(PID.TID 0000.0001) // =======================================================
(PID.TID 0000.0001) // End MONITOR dynamic field statistics
(PID.TID 0000.0001) // =======================================================
 cg2d: Sum(rhs),rhsMax =  -7.45058059692383E-09  3.51706504072420E+04
(PID.TID 0000.0001)      cg2d_init_res =   6.57305966624549E+04
(PID.TID 0000.0001)      cg2d_iters(min,last) =      -1      14
(PID.TID 0000.0001)      cg2d_last_res =   1.30010116152434E-11
(PID.TID 0000.0001) // =======================================================
(PID.TID 0000.0001) // Begin MONITOR dynamic field statistics
(PID.TID 0000.0001) // =======================================================
(PID.TID 0000.0001) %MON time_tsnumber                =                    31
(PID.TID 0000.0001) %MON time_secondsf                =   1.1160000000000E+04
(PID.TID 0000.0001) %MON dynstat_eta_max              =   4.4030849084441E+03
(PID.TID 0000.0001) %MON dynstat_eta_min              =  -3.3168531075061E+03
(PID.TID 0000.0001) %MON dynstat_eta_mean             =   5.1414473626228E-13
(PID.TID 0000.0001) %MON dynstat_eta_sd               =   2.6516884951967E+03
(PID.TID 0000.0001) %MON dynstat_eta_del2             =   7.5849557449716E-01
(PID.TID 0000.0001) %MON dynstat_uvel_max             =   3.2456690536333E+01
(PID.TID 0000.0001) %MON dynstat_uvel_min             =  -3.2456091619611E+01
(PID.TID 0000.0001) %MON dynstat_uvel_mean            =   1.1506466421447E+00
(PID.TID 0000.0001) %MON dynstat_uvel_sd              =   9.8058038339075E+00
(PID.TID 0000.0001) %MON dynstat_uvel_del2            =   1.8334837826396E-03
(PID.TID 0000.0001) %MON dynstat_vvel_max             =   3.2446692477367E+01
(PID.TID 0000.0001) %MON dynstat_vvel_min             =  -3.2435356415274E+01
(PID.TID 0000.0001) %MON dynstat_vvel_mean            =   1.1547779203485E+00
(PID.TID 0000.0001) %MON dynstat_vvel_sd              =   9.8056127701210E+00
(PID.TID 0000.0001) %MON dynstat_vvel_del2            =   1.8343356075890E-03
(PID.TID 0000.0001) %MON dynstat_wvel_max             =   3.0102800816948E-01
(PID.TID 0000.0001) %MON dynstat_wvel_min             =  -2.8025225238515E-01
(PID.TID 0000.0001) %MON dynstat_wvel_mean            =   7.2962025601444E-17
(PID.TID 0000.0001) %MON dynstat_wvel_sd              =   9.9257576516781E-02
(PID.TID 0000.0001) %MON dynstat_wvel_del2            =   9.2434525691193E-05
(PID.TID 0000.0001) %MON dynstat_theta_max            =   1.1573289338195E+03
(PID.TID 0000.0001) %MON dynstat_theta_min            =   2.5802411935127E+02
(PID.TID 0000.0001) %MON dynstat_theta_mean           =   3.2787513823690E+02
(PID.TID 0000.0001) %MON dynstat_theta_sd             =   9.0408341798607E+01
(PID.TID 0000.0001) %MON dynstat_theta_del2           =   6.9972762303872E-04
(PID.TID 0000.0001) %MON dynstat_salt_max             =   2.0718785966986E-02
(PID.TID 0000.0001) %MON dynstat_salt_min             =   0.0000000000000E+00
(PID.TID 0000.0001) %MON dynstat_salt_mean            =   1.9024562758614E-03
(PID.TID 0000.0001) %MON dynstat_salt_sd              =   3.9086072818089E-03
(PID.TID 0000.0001) %MON dynstat_salt_del2            =   8.4416241478711E-07
(PID.TID 0000.0001) %MON advcfl_uvel_max              =   9.7949231682879E-02
(PID.TID 0000.0001) %MON advcfl_vvel_max              =   9.7919343966734E-02
(PID.TID 0000.0001) %MON advcfl_wvel_max              =   1.1602792606104E-02
(PID.TID 0000.0001) %MON advcfl_W_hf_max              =   1.3176202218369E-02
(PID.TID 0000.0001) %MON am_eta_mean                  =  -2.2457442000175E+11
(PID.TID 0000.0001) %MON am_uZo_mean                  =   2.2414750255579E+11
(PID.TID 0000.0001) %MON am_tot_mean                  =  -4.2691744595831E+08
(PID.TID 0000.0001) %MON pe_b_mean                    =   2.9780133748547E+01
(PID.TID 0000.0001) %MON ke_max                       =   5.2656055675055E+02
(PID.TID 0000.0001) %MON ke_mean                      =   9.7480665183649E+01
(PID.TID 0000.0001) %MON ke_vol                       =   5.0986421042785E+19
(PID.TID 0000.0001) %MON vort_r_min                   =  -1.2133998508976E-05
(PID.TID 0000.0001) %MON vort_r_max                   =   1.2130408789016E-05
(PID.TID 0000.0001) %MON vort_a_mean                  =   2.9416262085422E-20
(PID.TID 0000.0001) %MON vort_a_sd                    =   8.5211521266529E-05
(PID.TID 0000.0001) %MON vort_p_mean                  =   2.4513515271607E-20
(PID.TID 0000.0001) %MON vort_p_sd                    =   8.4247498486495E-05
(PID.TID 0000.0001) %MON surfExpan_theta_mean         =  -4.6118945674568E+00
(PID.TID 0000.0001) %MON surfExpan_salt_mean          =  -4.6422885150779E-04
(PID.TID 0000.0001) %MON surfExpan_Heat_mean          =  -4.1154708965471E+02
(PID.TID 0000.0001) %MON En_Budget_T2PE_mean          =   6.3928036445938E+01
(PID.TID 0000.0001) // =======================================================
(PID.TID 0000.0001) // End MONITOR dynamic field statistics
(PID.TID 0000.0001) // =======================================================
 cg2d: Sum(rhs),rhsMax =  -5.58793544769287E-08  3.68092309084553E+04
(PID.TID 0000.0001)      cg2d_init_res =   6.51746426381673E+04
(PID.TID 0000.0001)      cg2d_iters(min,last) =      -1      14
(PID.TID 0000.0001)      cg2d_last_res =   1.37287025555694E-11
(PID.TID 0000.0001) // =======================================================
(PID.TID 0000.0001) // Begin MONITOR dynamic field statistics
(PID.TID 0000.0001) // =======================================================
(PID.TID 0000.0001) %MON time_tsnumber                =                    32
(PID.TID 0000.0001) %MON time_secondsf                =   1.1520000000000E+04
(PID.TID 0000.0001) %MON dynstat_eta_max              =   4.6054898851958E+03
(PID.TID 0000.0001) %MON dynstat_eta_min              =  -3.4715254199671E+03
(PID.TID 0000.0001) %MON dynstat_eta_mean             =   0.0000000000000E+00
(PID.TID 0000.0001) %MON dynstat_eta_sd               =   2.7748247113545E+03
(PID.TID 0000.0001) %MON dynstat_eta_del2             =   7.7353992416885E-01
(PID.TID 0000.0001) %MON dynstat_uvel_max             =   3.3063491075858E+01
(PID.TID 0000.0001) %MON dynstat_uvel_min             =  -3.3063160706807E+01
(PID.TID 0000.0001) %MON dynstat_uvel_mean            =   1.2040292941215E+00
(PID.TID 0000.0001) %MON dynstat_uvel_sd              =   9.9626664445595E+00
(PID.TID 0000.0001) %MON dynstat_uvel_del2            =   1.8556476436281E-03
(PID.TID 0000.0001) %MON dynstat_vvel_max             =   3.3053510791507E+01
(PID.TID 0000.0001) %MON dynstat_vvel_min             =  -3.3041821037499E+01
(PID.TID 0000.0001) %MON dynstat_vvel_mean            =   1.2083599781940E+00
(PID.TID 0000.0001) %MON dynstat_vvel_sd              =   9.9624223511191E+00
(PID.TID 0000.0001) %MON dynstat_vvel_del2            =   1.8564311335244E-03
(PID.TID 0000.0001) %MON dynstat_wvel_max             =   3.0479052812711E-01
(PID.TID 0000.0001) %MON dynstat_wvel_min             =  -2.7836763559556E-01
(PID.TID 0000.0001) %MON dynstat_wvel_mean            =  -2.5159319172912E-17
(PID.TID 0000.0001) %MON dynstat_wvel_sd              =   1.0104434712691E-01
(PID.TID 0000.0001) %MON dynstat_wvel_del2            =   9.3332321441864E-05
(PID.TID 0000.0001) %MON dynstat_theta_max            =   1.1573634337114E+03
(PID.TID 0000.0001) %MON dynstat_theta_min            =   2.5808937063060E+02
(PID.TID 0000.0001) %MON dynstat_theta_mean           =   3.2787247196103E+02
(PID.TID 0000.0001) %MON dynstat_theta_sd             =   9.0411590638305E+01
(PID.TID 0000.0001) %MON dynstat_theta_del2           =   7.0401516689649E-04
(PID.TID 0000.0001) %MON dynstat_salt_max             =   2.0958031880593E-02
(PID.TID 0000.0001) %MON dynstat_salt_min             =   0.0000000000000E+00
(PID.TID 0000.0001) %MON dynstat_salt_mean            =   1.9067222297980E-03
(PID.TID 0000.0001) %MON dynstat_salt_sd              =   3.9156942387468E-03
(PID.TID 0000.0001) %MON dynstat_salt_del2            =   8.4734275310314E-07
(PID.TID 0000.0001) %MON advcfl_uvel_max              =   9.9802598446247E-02
(PID.TID 0000.0001) %MON advcfl_vvel_max              =   9.9772783932697E-02
(PID.TID 0000.0001) %MON advcfl_wvel_max              =   1.1747814788625E-02
(PID.TID 0000.0001) %MON advcfl_W_hf_max              =   1.3540533782031E-02
(PID.TID 0000.0001) %MON am_eta_mean                  =  -2.3558872947841E+11
(PID.TID 0000.0001) %MON am_uZo_mean                  =   2.3513121265148E+11
(PID.TID 0000.0001) %MON am_tot_mean                  =  -4.5751682693854E+08
(PID.TID 0000.0001) %MON pe_b_mean                    =   3.2610145921259E+01
(PID.TID 0000.0001) %MON ke_max                       =   5.4703668114515E+02
(PID.TID 0000.0001) %MON ke_mean                      =   1.0070720108292E+02
(PID.TID 0000.0001) %MON ke_vol                       =   5.0986421042785E+19
(PID.TID 0000.0001) %MON vort_r_min                   =  -1.2648871431275E-05
(PID.TID 0000.0001) %MON vort_r_max                   =   1.2645052059380E-05
(PID.TID 0000.0001) %MON vort_a_mean                  =   8.8248786256265E-20
(PID.TID 0000.0001) %MON vort_a_sd                    =   8.5261882519774E-05
(PID.TID 0000.0001) %MON vort_p_mean                  =   8.0894593927992E-20
(PID.TID 0000.0001) %MON vort_p_sd                    =   8.4249440534919E-05
(PID.TID 0000.0001) %MON surfExpan_theta_mean         =  -4.5557675395700E+00
(PID.TID 0000.0001) %MON surfExpan_salt_mean          =  -4.6134632611121E-04
(PID.TID 0000.0001) %MON surfExpan_Heat_mean          =  -4.0689814215047E+02
(PID.TID 0000.0001) %MON En_Budget_T2PE_mean          =   6.4708288732257E+01
(PID.TID 0000.0001) // =======================================================
(PID.TID 0000.0001) // End MONITOR dynamic field statistics
(PID.TID 0000.0001) // =======================================================
(PID.TID 0000.0001)   Exporting atmospheric fluxes at iter.        32
(PID.TID 0000.0001)   Importing oceanic fields at iteration        32
 cg2d: Sum(rhs),rhsMax =  -2.60770320892334E-08  3.84256273883067E+04
(PID.TID 0000.0001)      cg2d_init_res =   6.44300551018911E+04
(PID.TID 0000.0001)      cg2d_iters(min,last) =      -1      14
(PID.TID 0000.0001)      cg2d_last_res =   1.44640325220228E-11
(PID.TID 0000.0001) // =======================================================
(PID.TID 0000.0001) // Begin MONITOR dynamic field statistics
(PID.TID 0000.0001) // =======================================================
(PID.TID 0000.0001) %MON time_tsnumber                =                    33
(PID.TID 0000.0001) %MON time_secondsf                =   1.1880000000000E+04
(PID.TID 0000.0001) %MON dynstat_eta_max              =   4.8051868620658E+03
(PID.TID 0000.0001) %MON dynstat_eta_min              =  -3.6249940184518E+03
(PID.TID 0000.0001) %MON dynstat_eta_mean             =  -3.4276315750819E-13
(PID.TID 0000.0001) %MON dynstat_eta_sd               =   2.8965515752186E+03
(PID.TID 0000.0001) %MON dynstat_eta_del2             =   7.8790960780866E-01
(PID.TID 0000.0001) %MON dynstat_uvel_max             =   3.3626374507079E+01
(PID.TID 0000.0001) %MON dynstat_uvel_min             =  -3.3626304159619E+01
(PID.TID 0000.0001) %MON dynstat_uvel_mean            =   1.2567587499092E+00
(PID.TID 0000.0001) %MON dynstat_uvel_sd              =   1.0109989281107E+01
(PID.TID 0000.0001) %MON dynstat_uvel_del2            =   1.8763109243533E-03
(PID.TID 0000.0001) %MON dynstat_vvel_max             =   3.3616389791661E+01
(PID.TID 0000.0001) %MON dynstat_vvel_min             =  -3.3604428904883E+01
(PID.TID 0000.0001) %MON dynstat_vvel_mean            =   1.2612872114879E+00
(PID.TID 0000.0001) %MON dynstat_vvel_sd              =   1.0109690257621E+01
(PID.TID 0000.0001) %MON dynstat_vvel_del2            =   1.8770055496168E-03
(PID.TID 0000.0001) %MON dynstat_wvel_max             =   3.0808055015403E-01
(PID.TID 0000.0001) %MON dynstat_wvel_min             =  -2.7583250968533E-01
(PID.TID 0000.0001) %MON dynstat_wvel_mean            =   5.7866434097697E-17
(PID.TID 0000.0001) %MON dynstat_wvel_sd              =   1.0272817187196E-01
(PID.TID 0000.0001) %MON dynstat_wvel_del2            =   9.4133118005654E-05
(PID.TID 0000.0001) %MON dynstat_theta_max            =   1.1573660647059E+03
(PID.TID 0000.0001) %MON dynstat_theta_min            =   2.5815252131109E+02
(PID.TID 0000.0001) %MON dynstat_theta_mean           =   3.2786964850448E+02
(PID.TID 0000.0001) %MON dynstat_theta_sd             =   9.0414919601578E+01
(PID.TID 0000.0001) %MON dynstat_theta_del2           =   7.0571141511267E-04
(PID.TID 0000.0001) %MON dynstat_salt_max             =   2.1184337762378E-02
(PID.TID 0000.0001) %MON dynstat_salt_min             =   0.0000000000000E+00
(PID.TID 0000.0001) %MON dynstat_salt_mean            =   1.9111405840701E-03
(PID.TID 0000.0001) %MON dynstat_salt_sd              =   3.9232486196223E-03
(PID.TID 0000.0001) %MON dynstat_salt_del2            =   8.5106930928924E-07
(PID.TID 0000.0001) %MON advcfl_uvel_max              =   1.0152429340088E-01
(PID.TID 0000.0001) %MON advcfl_vvel_max              =   1.0149447844230E-01
(PID.TID 0000.0001) %MON advcfl_wvel_max              =   1.1874625059470E-02
(PID.TID 0000.0001) %MON advcfl_W_hf_max              =   1.3892042905085E-02
(PID.TID 0000.0001) %MON am_eta_mean                  =  -2.4650409792512E+11
(PID.TID 0000.0001) %MON am_uZo_mean                  =   2.4601621481016E+11
(PID.TID 0000.0001) %MON am_tot_mean                  =  -4.8788311495880E+08
(PID.TID 0000.0001) %MON pe_b_mean                    =   3.5534005634198E+01
(PID.TID 0000.0001) %MON ke_max                       =   5.6687869556921E+02
(PID.TID 0000.0001) %MON ke_mean                      =   1.0379400417732E+02
(PID.TID 0000.0001) %MON ke_vol                       =   5.0986421042785E+19
(PID.TID 0000.0001) %MON vort_r_min                   =  -1.3152570338787E-05
(PID.TID 0000.0001) %MON vort_r_max                   =   1.3148545555900E-05
(PID.TID 0000.0001) %MON vort_a_mean                  =   8.0894720734910E-20
(PID.TID 0000.0001) %MON vort_a_sd                    =   8.5311970684105E-05
(PID.TID 0000.0001) %MON vort_p_mean                  =   8.0894587296563E-20
(PID.TID 0000.0001) %MON vort_p_sd                    =   8.4251449687967E-05
(PID.TID 0000.0001) %MON surfExpan_theta_mean         =  -4.4864745664499E+00
(PID.TID 0000.0001) %MON surfExpan_salt_mean          =  -4.5718932678156E-04
(PID.TID 0000.0001) %MON surfExpan_Heat_mean          =  -4.0106350511119E+02
(PID.TID 0000.0001) %MON En_Budget_T2PE_mean          =   6.5396935917998E+01
(PID.TID 0000.0001) // =======================================================
(PID.TID 0000.0001) // End MONITOR dynamic field statistics
(PID.TID 0000.0001) // =======================================================
 cg2d: Sum(rhs),rhsMax =  -3.72529029846191E-08  4.00126590771678E+04
(PID.TID 0000.0001)      cg2d_init_res =   6.34997978707631E+04
(PID.TID 0000.0001)      cg2d_iters(min,last) =      -1      14
(PID.TID 0000.0001)      cg2d_last_res =   1.51994058143200E-11
(PID.TID 0000.0001) // =======================================================
(PID.TID 0000.0001) // Begin MONITOR dynamic field statistics
(PID.TID 0000.0001) // =======================================================
(PID.TID 0000.0001) %MON time_tsnumber                =                    34
(PID.TID 0000.0001) %MON time_secondsf                =   1.2240000000000E+04
(PID.TID 0000.0001) %MON dynstat_eta_max              =   5.0015987220039E+03
(PID.TID 0000.0001) %MON dynstat_eta_min              =  -3.7768875690540E+03
(PID.TID 0000.0001) %MON dynstat_eta_mean             =   1.7138157875409E-13
(PID.TID 0000.0001) %MON dynstat_eta_sd               =   3.0165160858147E+03
(PID.TID 0000.0001) %MON dynstat_eta_del2             =   8.0162215052093E-01
(PID.TID 0000.0001) %MON dynstat_uvel_max             =   3.4144728050033E+01
(PID.TID 0000.0001) %MON dynstat_uvel_min             =  -3.4144908064073E+01
(PID.TID 0000.0001) %MON dynstat_uvel_mean            =   1.3086892126199E+00
(PID.TID 0000.0001) %MON dynstat_uvel_sd              =   1.0248152899669E+01
(PID.TID 0000.0001) %MON dynstat_uvel_del2            =   1.8956086812694E-03
(PID.TID 0000.0001) %MON dynstat_vvel_max             =   3.4134718202611E+01
(PID.TID 0000.0001) %MON dynstat_vvel_min             =  -3.4122567643330E+01
(PID.TID 0000.0001) %MON dynstat_vvel_mean            =   1.3134123541612E+00
(PID.TID 0000.0001) %MON dynstat_vvel_sd              =   1.0247799051284E+01
(PID.TID 0000.0001) %MON dynstat_vvel_del2            =   1.8962127302197E-03
(PID.TID 0000.0001) %MON dynstat_wvel_max             =   3.1097376878417E-01
(PID.TID 0000.0001) %MON dynstat_wvel_min             =  -2.7266910032434E-01
(PID.TID 0000.0001) %MON dynstat_wvel_mean            =   1.3837625545102E-16
(PID.TID 0000.0001) %MON dynstat_wvel_sd              =   1.0431055121020E-01
(PID.TID 0000.0001) %MON dynstat_wvel_del2            =   9.4848000736696E-05
(PID.TID 0000.0001) %MON dynstat_theta_max            =   1.1573411513003E+03
(PID.TID 0000.0001) %MON dynstat_theta_min            =   2.5821376793874E+02
(PID.TID 0000.0001) %MON dynstat_theta_mean           =   3.2786667901774E+02
(PID.TID 0000.0001) %MON dynstat_theta_sd             =   9.0418319298022E+01
(PID.TID 0000.0001) %MON dynstat_theta_del2           =   7.0497076478677E-04
(PID.TID 0000.0001) %MON dynstat_salt_max             =   2.1396009230328E-02
(PID.TID 0000.0001) %MON dynstat_salt_min             =   0.0000000000000E+00
(PID.TID 0000.0001) %MON dynstat_salt_mean            =   1.9157242039088E-03
(PID.TID 0000.0001) %MON dynstat_salt_sd              =   3.9312773869937E-03
(PID.TID 0000.0001) %MON dynstat_salt_del2            =   8.5447803442472E-07
(PID.TID 0000.0001) %MON advcfl_uvel_max              =   1.0311244192399E-01
(PID.TID 0000.0001) %MON advcfl_vvel_max              =   1.0308256111188E-01
(PID.TID 0000.0001) %MON advcfl_wvel_max              =   1.1989557708888E-02
(PID.TID 0000.0001) %MON advcfl_W_hf_max              =   1.4231865776133E-02
(PID.TID 0000.0001) %MON am_eta_mean                  =  -2.5728796500337E+11
(PID.TID 0000.0001) %MON am_uZo_mean                  =   2.5677024470847E+11
(PID.TID 0000.0001) %MON am_tot_mean                  =  -5.1772029490604E+08
(PID.TID 0000.0001) %MON pe_b_mean                    =   3.8538333114901E+01
(PID.TID 0000.0001) %MON ke_max                       =   5.8604572078996E+02
(PID.TID 0000.0001) %MON ke_mean                      =   1.0673987135894E+02
(PID.TID 0000.0001) %MON ke_vol                       =   5.0986421042785E+19
(PID.TID 0000.0001) %MON vort_r_min                   =  -1.3643344049849E-05
(PID.TID 0000.0001) %MON vort_r_max                   =   1.3639138179408E-05
(PID.TID 0000.0001) %MON vort_a_mean                  =   9.8054206951406E-20
(PID.TID 0000.0001) %MON vort_a_sd                    =   8.5361638214462E-05
(PID.TID 0000.0001) %MON vort_p_mean                  =   9.8054036961437E-20
(PID.TID 0000.0001) %MON vort_p_sd                    =   8.4253527024167E-05
(PID.TID 0000.0001) %MON surfExpan_theta_mean         =  -4.4043344254212E+00
(PID.TID 0000.0001) %MON surfExpan_salt_mean          =  -4.5176362611534E-04
(PID.TID 0000.0001) %MON surfExpan_Heat_mean          =  -3.9406792192006E+02
(PID.TID 0000.0001) %MON En_Budget_T2PE_mean          =   6.5994227022604E+01
(PID.TID 0000.0001) // =======================================================
(PID.TID 0000.0001) // End MONITOR dynamic field statistics
(PID.TID 0000.0001) // =======================================================
 cg2d: Sum(rhs),rhsMax =  -3.72529029846191E-09  4.15636139919215E+04
(PID.TID 0000.0001)      cg2d_init_res =   6.23874356674296E+04
(PID.TID 0000.0001)      cg2d_iters(min,last) =      -1      14
(PID.TID 0000.0001)      cg2d_last_res =   1.59262547457698E-11
(PID.TID 0000.0001) // =======================================================
(PID.TID 0000.0001) // Begin MONITOR dynamic field statistics
(PID.TID 0000.0001) // =======================================================
(PID.TID 0000.0001) %MON time_tsnumber                =                    35
(PID.TID 0000.0001) %MON time_secondsf                =   1.2600000000000E+04
(PID.TID 0000.0001) %MON dynstat_eta_max              =   5.1941492925361E+03
(PID.TID 0000.0001) %MON dynstat_eta_min              =  -3.9268287786878E+03
(PID.TID 0000.0001) %MON dynstat_eta_mean             =  -5.1414473626228E-13
(PID.TID 0000.0001) %MON dynstat_eta_sd               =   3.1343712857928E+03
(PID.TID 0000.0001) %MON dynstat_eta_del2             =   8.1471101439147E-01
(PID.TID 0000.0001) %MON dynstat_uvel_max             =   3.4618088478949E+01
(PID.TID 0000.0001) %MON dynstat_uvel_min             =  -3.4618510457425E+01
(PID.TID 0000.0001) %MON dynstat_uvel_mean            =   1.3596783823147E+00
(PID.TID 0000.0001) %MON dynstat_uvel_sd              =   1.0377583444677E+01
(PID.TID 0000.0001) %MON dynstat_uvel_del2            =   1.9137180986090E-03
(PID.TID 0000.0001) %MON dynstat_vvel_max             =   3.4608035428615E+01
(PID.TID 0000.0001) %MON dynstat_vvel_min             =  -3.4595773676143E+01
(PID.TID 0000.0001) %MON dynstat_vvel_mean            =   1.3645920147811E+00
(PID.TID 0000.0001) %MON dynstat_vvel_sd              =   1.0377174815185E+01
(PID.TID 0000.0001) %MON dynstat_vvel_del2            =   1.9142265725150E-03
(PID.TID 0000.0001) %MON dynstat_wvel_max             =   3.1355379053009E-01
(PID.TID 0000.0001) %MON dynstat_wvel_min             =  -2.6889302969948E-01
(PID.TID 0000.0001) %MON dynstat_wvel_mean            =   9.3089480939774E-17
(PID.TID 0000.0001) %MON dynstat_wvel_sd              =   1.0579314956032E-01
(PID.TID 0000.0001) %MON dynstat_wvel_del2            =   9.5488154983477E-05
(PID.TID 0000.0001) %MON dynstat_theta_max            =   1.1573276921646E+03
(PID.TID 0000.0001) %MON dynstat_theta_min            =   2.5827320954838E+02
(PID.TID 0000.0001) %MON dynstat_theta_mean           =   3.2786357350223E+02
(PID.TID 0000.0001) %MON dynstat_theta_sd             =   9.0421780200679E+01
(PID.TID 0000.0001) %MON dynstat_theta_del2           =   7.0237512060074E-04
(PID.TID 0000.0001) %MON dynstat_salt_max             =   2.1605705606658E-02
(PID.TID 0000.0001) %MON dynstat_salt_min             =   0.0000000000000E+00
(PID.TID 0000.0001) %MON dynstat_salt_mean            =   1.9204759714564E-03
(PID.TID 0000.0001) %MON dynstat_salt_sd              =   3.9397784020811E-03
(PID.TID 0000.0001) %MON dynstat_salt_del2            =   8.5751469008961E-07
(PID.TID 0000.0001) %MON advcfl_uvel_max              =   1.0456567719441E-01
(PID.TID 0000.0001) %MON advcfl_vvel_max              =   1.0453567589726E-01
(PID.TID 0000.0001) %MON advcfl_wvel_max              =   1.2133688116820E-02
(PID.TID 0000.0001) %MON advcfl_W_hf_max              =   1.4531356402702E-02
(PID.TID 0000.0001) %MON am_eta_mean                  =  -2.6790818293289E+11
(PID.TID 0000.0001) %MON am_uZo_mean                  =   2.6736147793429E+11
(PID.TID 0000.0001) %MON am_tot_mean                  =  -5.4670499860275E+08
(PID.TID 0000.0001) %MON pe_b_mean                    =   4.1608543660533E+01
(PID.TID 0000.0001) %MON ke_max                       =   6.0450418573187E+02
(PID.TID 0000.0001) %MON ke_mean                      =   1.0954541598316E+02
(PID.TID 0000.0001) %MON ke_vol                       =   5.0986421042785E+19
(PID.TID 0000.0001) %MON vort_r_min                   =  -1.4119484140034E-05
(PID.TID 0000.0001) %MON vort_r_max                   =   1.4115125673565E-05
(PID.TID 0000.0001) %MON vort_a_mean                  =   5.6381168997058E-20
(PID.TID 0000.0001) %MON vort_a_sd                    =   8.5410741685494E-05
(PID.TID 0000.0001) %MON vort_p_mean                  =   5.8832417099252E-20
(PID.TID 0000.0001) %MON vort_p_sd                    =   8.4255676987628E-05
(PID.TID 0000.0001) %MON surfExpan_theta_mean         =  -4.3096988951097E+00
(PID.TID 0000.0001) %MON surfExpan_salt_mean          =  -4.4508058858011E-04
(PID.TID 0000.0001) %MON surfExpan_Heat_mean          =  -3.8593931084369E+02
(PID.TID 0000.0001) %MON En_Budget_T2PE_mean          =   6.6500618301809E+01
(PID.TID 0000.0001) // =======================================================
(PID.TID 0000.0001) // End MONITOR dynamic field statistics
(PID.TID 0000.0001) // =======================================================
 cg2d: Sum(rhs),rhsMax =   6.70552253723145E-08  4.30723030418776E+04
(PID.TID 0000.0001)      cg2d_init_res =   6.10971374717542E+04
(PID.TID 0000.0001)      cg2d_iters(min,last) =      -1      14
(PID.TID 0000.0001)      cg2d_last_res =   1.66344138781770E-11
(PID.TID 0000.0001) // =======================================================
(PID.TID 0000.0001) // Begin MONITOR dynamic field statistics
(PID.TID 0000.0001) // =======================================================
(PID.TID 0000.0001) %MON time_tsnumber                =                    36
(PID.TID 0000.0001) %MON time_secondsf                =   1.2960000000000E+04
(PID.TID 0000.0001) %MON dynstat_eta_max              =   5.3818650073935E+03
(PID.TID 0000.0001) %MON dynstat_eta_min              =  -4.0744372610950E+03
(PID.TID 0000.0001) %MON dynstat_eta_mean             =   2.5707236813114E-13
(PID.TID 0000.0001) %MON dynstat_eta_sd               =   3.2497772708091E+03
(PID.TID 0000.0001) %MON dynstat_eta_del2             =   8.2722445146344E-01
(PID.TID 0000.0001) %MON dynstat_uvel_max             =   3.5046131567441E+01
(PID.TID 0000.0001) %MON dynstat_uvel_min             =  -3.5046790876618E+01
(PID.TID 0000.0001) %MON dynstat_uvel_mean            =   1.4095879519476E+00
(PID.TID 0000.0001) %MON dynstat_uvel_sd              =   1.0498726674354E+01
(PID.TID 0000.0001) %MON dynstat_uvel_del2            =   1.9307196948744E-03
(PID.TID 0000.0001) %MON dynstat_vvel_max             =   3.5036021928776E+01
(PID.TID 0000.0001) %MON dynstat_vvel_min             =  -3.5023728344532E+01
(PID.TID 0000.0001) %MON dynstat_vvel_mean            =   1.4146871377218E+00
(PID.TID 0000.0001) %MON dynstat_vvel_sd              =   1.0498262942850E+01
(PID.TID 0000.0001) %MON dynstat_vvel_del2            =   1.9311135518551E-03
(PID.TID 0000.0001) %MON dynstat_wvel_max             =   3.1590948349018E-01
(PID.TID 0000.0001) %MON dynstat_wvel_min             =  -2.6451470925166E-01
(PID.TID 0000.0001) %MON dynstat_wvel_mean            =  -2.1637014488704E-16
(PID.TID 0000.0001) %MON dynstat_wvel_sd              =   1.0717812349167E-01
(PID.TID 0000.0001) %MON dynstat_wvel_del2            =   9.6062207124227E-05
(PID.TID 0000.0001) %MON dynstat_theta_max            =   1.1572933047546E+03
(PID.TID 0000.0001) %MON dynstat_theta_min            =   2.5833092128301E+02
(PID.TID 0000.0001) %MON dynstat_theta_mean           =   3.2786034184106E+02
(PID.TID 0000.0001) %MON dynstat_theta_sd             =   9.0425293688303E+01
(PID.TID 0000.0001) %MON dynstat_theta_del2           =   6.9872672476666E-04
(PID.TID 0000.0001) %MON dynstat_salt_max             =   2.1786831318004E-02
(PID.TID 0000.0001) %MON dynstat_salt_min             =   0.0000000000000E+00
(PID.TID 0000.0001) %MON dynstat_salt_mean            =   1.9253973247755E-03
(PID.TID 0000.0001) %MON dynstat_salt_sd              =   3.9487399107447E-03
(PID.TID 0000.0001) %MON dynstat_salt_del2            =   8.5998362011122E-07
(PID.TID 0000.0001) %MON advcfl_uvel_max              =   1.0588311651743E-01
(PID.TID 0000.0001) %MON advcfl_vvel_max              =   1.0585296113270E-01
(PID.TID 0000.0001) %MON advcfl_wvel_max              =   1.2389828242010E-02
(PID.TID 0000.0001) %MON advcfl_W_hf_max              =   1.4808920741727E-02
(PID.TID 0000.0001) %MON am_eta_mean                  =  -2.7833311375136E+11
(PID.TID 0000.0001) %MON am_uZo_mean                  =   2.7775862884703E+11
(PID.TID 0000.0001) %MON am_tot_mean                  =  -5.7448490432990E+08
(PID.TID 0000.0001) %MON pe_b_mean                    =   4.4728962933883E+01
(PID.TID 0000.0001) %MON ke_max                       =   6.2222759141595E+02
(PID.TID 0000.0001) %MON ke_mean                      =   1.1221253224596E+02
(PID.TID 0000.0001) %MON ke_vol                       =   5.0986421042785E+19
(PID.TID 0000.0001) %MON vort_r_min                   =  -1.4579328938875E-05
(PID.TID 0000.0001) %MON vort_r_max                   =   1.4574853319147E-05
(PID.TID 0000.0001) %MON vort_a_mean                  =   2.9661397602800E-19
(PID.TID 0000.0001) %MON vort_a_sd                    =   8.5459132703425E-05
(PID.TID 0000.0001) %MON vort_p_mean                  =   2.9906476043672E-19
(PID.TID 0000.0001) %MON vort_p_sd                    =   8.4257898073404E-05
(PID.TID 0000.0001) %MON surfExpan_theta_mean         =  -4.2029522209763E+00
(PID.TID 0000.0001) %MON surfExpan_salt_mean          =  -4.3715365102520E-04
(PID.TID 0000.0001) %MON surfExpan_Heat_mean          =  -3.7670875786698E+02
(PID.TID 0000.0001) %MON En_Budget_T2PE_mean          =   6.6916607668642E+01
(PID.TID 0000.0001) // =======================================================
(PID.TID 0000.0001) // End MONITOR dynamic field statistics
(PID.TID 0000.0001) // =======================================================
 cg2d: Sum(rhs),rhsMax =  -3.72529029846191E-09  4.45330288868670E+04
(PID.TID 0000.0001)      cg2d_init_res =   5.96336870031922E+04
(PID.TID 0000.0001)      cg2d_iters(min,last) =      -1      14
(PID.TID 0000.0001)      cg2d_last_res =   1.73123386226425E-11
(PID.TID 0000.0001) // =======================================================
(PID.TID 0000.0001) // Begin MONITOR dynamic field statistics
(PID.TID 0000.0001) // =======================================================
(PID.TID 0000.0001) %MON time_tsnumber                =                    37
(PID.TID 0000.0001) %MON time_secondsf                =   1.3320000000000E+04
(PID.TID 0000.0001) %MON dynstat_eta_max              =   5.5639658401202E+03
(PID.TID 0000.0001) %MON dynstat_eta_min              =  -4.2193350729319E+03
(PID.TID 0000.0001) %MON dynstat_eta_mean             =  -2.5707236813114E-13
(PID.TID 0000.0001) %MON dynstat_eta_sd               =   3.3624021668194E+03
(PID.TID 0000.0001) %MON dynstat_eta_del2             =   8.3921666326569E-01
(PID.TID 0000.0001) %MON dynstat_uvel_max             =   3.5428663234285E+01
(PID.TID 0000.0001) %MON dynstat_uvel_min             =  -3.5429559630776E+01
(PID.TID 0000.0001) %MON dynstat_uvel_mean            =   1.4582841175644E+00
(PID.TID 0000.0001) %MON dynstat_uvel_sd              =   1.0612065380512E+01
(PID.TID 0000.0001) %MON dynstat_uvel_del2            =   1.9467122788252E-03
(PID.TID 0000.0001) %MON dynstat_vvel_max             =   3.5418487769829E+01
(PID.TID 0000.0001) %MON dynstat_vvel_min             =  -3.5406247793085E+01
(PID.TID 0000.0001) %MON dynstat_vvel_mean            =   1.4635629404662E+00
(PID.TID 0000.0001) %MON dynstat_vvel_sd              =   1.0611548015425E+01
(PID.TID 0000.0001) %MON dynstat_vvel_del2            =   1.9470065452820E-03
(PID.TID 0000.0001) %MON dynstat_wvel_max             =   3.1821448646537E-01
(PID.TID 0000.0001) %MON dynstat_wvel_min             =  -2.5953782319737E-01
(PID.TID 0000.0001) %MON dynstat_wvel_mean            =  -6.0382366014988E-17
(PID.TID 0000.0001) %MON dynstat_wvel_sd              =   1.0846802695158E-01
(PID.TID 0000.0001) %MON dynstat_wvel_del2            =   9.6582930143060E-05
(PID.TID 0000.0001) %MON dynstat_theta_max            =   1.1574114625926E+03
(PID.TID 0000.0001) %MON dynstat_theta_min            =   2.5838697588063E+02
(PID.TID 0000.0001) %MON dynstat_theta_mean           =   3.2785699337594E+02
(PID.TID 0000.0001) %MON dynstat_theta_sd             =   9.0428851919071E+01
(PID.TID 0000.0001) %MON dynstat_theta_del2           =   6.9470243958738E-04
(PID.TID 0000.0001) %MON dynstat_salt_max             =   2.1935912951691E-02
(PID.TID 0000.0001) %MON dynstat_salt_min             =   0.0000000000000E+00
(PID.TID 0000.0001) %MON dynstat_salt_mean            =   1.9304877487064E-03
(PID.TID 0000.0001) %MON dynstat_salt_sd              =   3.9581592928897E-03
(PID.TID 0000.0001) %MON dynstat_salt_del2            =   8.6076857968707E-07
(PID.TID 0000.0001) %MON advcfl_uvel_max              =   1.0706433292979E-01
(PID.TID 0000.0001) %MON advcfl_vvel_max              =   1.0703398204093E-01
(PID.TID 0000.0001) %MON advcfl_wvel_max              =   1.2598527351541E-02
(PID.TID 0000.0001) %MON advcfl_W_hf_max              =   1.5076996563966E-02
(PID.TID 0000.0001) %MON am_eta_mean                  =  -2.8853172596726E+11
(PID.TID 0000.0001) %MON am_uZo_mean                  =   2.8793104688326E+11
(PID.TID 0000.0001) %MON am_tot_mean                  =  -6.0067908399884E+08
(PID.TID 0000.0001) %MON pe_b_mean                    =   4.7882955525554E+01
(PID.TID 0000.0001) %MON ke_max                       =   6.3919618197112E+02
(PID.TID 0000.0001) %MON ke_mean                      =   1.1474474598604E+02
(PID.TID 0000.0001) %MON ke_vol                       =   5.0986421042785E+19
(PID.TID 0000.0001) %MON vort_r_min                   =  -1.5021267111847E-05
(PID.TID 0000.0001) %MON vort_r_max                   =   1.5016719083472E-05
(PID.TID 0000.0001) %MON vort_a_mean                  =   1.6914350699118E-19
(PID.TID 0000.0001) %MON vort_a_sd                    =   8.5506666607518E-05
(PID.TID 0000.0001) %MON vort_p_mean                  =   1.7649721963753E-19
(PID.TID 0000.0001) %MON vort_p_sd                    =   8.4260190727165E-05
(PID.TID 0000.0001) %MON surfExpan_theta_mean         =  -4.0845094516117E+00
(PID.TID 0000.0001) %MON surfExpan_salt_mean          =  -4.2799865658553E-04
(PID.TID 0000.0001) %MON surfExpan_Heat_mean          =  -3.6641034534847E+02
(PID.TID 0000.0001) %MON En_Budget_T2PE_mean          =   6.7242934286188E+01
(PID.TID 0000.0001) // =======================================================
(PID.TID 0000.0001) // End MONITOR dynamic field statistics
(PID.TID 0000.0001) // =======================================================
 cg2d: Sum(rhs),rhsMax =  -1.11758708953857E-08  4.59404897079649E+04
(PID.TID 0000.0001)      cg2d_init_res =   5.80024986945613E+04
(PID.TID 0000.0001)      cg2d_iters(min,last) =      -1      14
(PID.TID 0000.0001)      cg2d_last_res =   1.79477052498502E-11
(PID.TID 0000.0001) // =======================================================
(PID.TID 0000.0001) // Begin MONITOR dynamic field statistics
(PID.TID 0000.0001) // =======================================================
(PID.TID 0000.0001) %MON time_tsnumber                =                    38
(PID.TID 0000.0001) %MON time_secondsf                =   1.3680000000000E+04
(PID.TID 0000.0001) %MON dynstat_eta_max              =   5.7397668051706E+03
(PID.TID 0000.0001) %MON dynstat_eta_min              =  -4.3611480429842E+03
(PID.TID 0000.0001) %MON dynstat_eta_mean             =  -5.1414473626228E-13
(PID.TID 0000.0001) %MON dynstat_eta_sd               =   3.4719230851601E+03
(PID.TID 0000.0001) %MON dynstat_eta_del2             =   8.5074007106852E-01
(PID.TID 0000.0001) %MON dynstat_uvel_max             =   3.5871201299495E+01
(PID.TID 0000.0001) %MON dynstat_uvel_min             =  -3.5867304590513E+01
(PID.TID 0000.0001) %MON dynstat_uvel_mean            =   1.5056375012542E+00
(PID.TID 0000.0001) %MON dynstat_uvel_sd              =   1.0718094533851E+01
(PID.TID 0000.0001) %MON dynstat_uvel_del2            =   1.9618160474539E-03
(PID.TID 0000.0001) %MON dynstat_vvel_max             =   3.5856318644156E+01
(PID.TID 0000.0001) %MON dynstat_vvel_min             =  -3.5859540087313E+01
(PID.TID 0000.0001) %MON dynstat_vvel_mean            =   1.5110891889443E+00
(PID.TID 0000.0001) %MON dynstat_vvel_sd              =   1.0717521360889E+01
(PID.TID 0000.0001) %MON dynstat_vvel_del2            =   1.9619666737560E-03
(PID.TID 0000.0001) %MON dynstat_wvel_max             =   3.2136160268582E-01
(PID.TID 0000.0001) %MON dynstat_wvel_min             =  -2.5395580057111E-01
(PID.TID 0000.0001) %MON dynstat_wvel_mean            =  -7.0446093684153E-17
(PID.TID 0000.0001) %MON dynstat_wvel_sd              =   1.0966577855656E-01
(PID.TID 0000.0001) %MON dynstat_wvel_del2            =   9.7057595227073E-05
(PID.TID 0000.0001) %MON dynstat_theta_max            =   1.1575633701587E+03
(PID.TID 0000.0001) %MON dynstat_theta_min            =   2.5844141421583E+02
(PID.TID 0000.0001) %MON dynstat_theta_mean           =   3.2785353369987E+02
(PID.TID 0000.0001) %MON dynstat_theta_sd             =   9.0432450453196E+01
(PID.TID 0000.0001) %MON dynstat_theta_del2           =   6.9096262419266E-04
(PID.TID 0000.0001) %MON dynstat_salt_max             =   2.2053283389732E-02
(PID.TID 0000.0001) %MON dynstat_salt_min             =   0.0000000000000E+00
(PID.TID 0000.0001) %MON dynstat_salt_mean            =   1.9357483393948E-03
(PID.TID 0000.0001) %MON dynstat_salt_sd              =   3.9680329878761E-03
(PID.TID 0000.0001) %MON dynstat_salt_del2            =   8.5908644514916E-07
(PID.TID 0000.0001) %MON advcfl_uvel_max              =   1.0810933205054E-01
(PID.TID 0000.0001) %MON advcfl_vvel_max              =   1.0807873688726E-01
(PID.TID 0000.0001) %MON advcfl_wvel_max              =   1.2806978629200E-02
(PID.TID 0000.0001) %MON advcfl_W_hf_max              =   1.5338205728386E-02
(PID.TID 0000.0001) %MON am_eta_mean                  =  -2.9847368929094E+11
(PID.TID 0000.0001) %MON am_uZo_mean                  =   2.9784880806767E+11
(PID.TID 0000.0001) %MON am_tot_mean                  =  -6.2488122327478E+08
(PID.TID 0000.0001) %MON pe_b_mean                    =   5.1053065695323E+01
(PID.TID 0000.0001) %MON ke_max                       =   6.5539660069981E+02
(PID.TID 0000.0001) %MON ke_mean                      =   1.1714657468982E+02
(PID.TID 0000.0001) %MON ke_vol                       =   5.0986421042785E+19
(PID.TID 0000.0001) %MON vort_r_min                   =  -1.5443742031334E-05
(PID.TID 0000.0001) %MON vort_r_max                   =   1.5439178129376E-05
(PID.TID 0000.0001) %MON vort_a_mean                  =   5.8832524170843E-20
(PID.TID 0000.0001) %MON vort_a_sd                    =   8.5553199134511E-05
(PID.TID 0000.0001) %MON vort_p_mean                  =   5.8832401070217E-20
(PID.TID 0000.0001) %MON vort_p_sd                    =   8.4262553583577E-05
(PID.TID 0000.0001) %MON surfExpan_theta_mean         =  -3.9548161388381E+00
(PID.TID 0000.0001) %MON surfExpan_salt_mean          =  -4.1763309735505E-04
(PID.TID 0000.0001) %MON surfExpan_Heat_mean          =  -3.5508118093460E+02
(PID.TID 0000.0001) %MON En_Budget_T2PE_mean          =   6.7480397972218E+01
(PID.TID 0000.0001) // =======================================================
(PID.TID 0000.0001) // End MONITOR dynamic field statistics
(PID.TID 0000.0001) // =======================================================
 cg2d: Sum(rhs),rhsMax =  -3.72529029846191E-09  4.72896491104603E+04
(PID.TID 0000.0001)      cg2d_init_res =   5.62096323276708E+04
(PID.TID 0000.0001)      cg2d_iters(min,last) =      -1      14
(PID.TID 0000.0001)      cg2d_last_res =   1.85279412547905E-11
(PID.TID 0000.0001) // =======================================================
(PID.TID 0000.0001) // Begin MONITOR dynamic field statistics
(PID.TID 0000.0001) // =======================================================
(PID.TID 0000.0001) %MON time_tsnumber                =                    39
(PID.TID 0000.0001) %MON time_secondsf                =   1.4040000000000E+04
(PID.TID 0000.0001) %MON dynstat_eta_max              =   5.9085206723105E+03
(PID.TID 0000.0001) %MON dynstat_eta_min              =  -4.4995107575817E+03
(PID.TID 0000.0001) %MON dynstat_eta_mean             =   2.5707236813114E-13
(PID.TID 0000.0001) %MON dynstat_eta_sd               =   3.5780270547590E+03
(PID.TID 0000.0001) %MON dynstat_eta_del2             =   8.6184185640664E-01
(PID.TID 0000.0001) %MON dynstat_uvel_max             =   3.6315956278912E+01
(PID.TID 0000.0001) %MON dynstat_uvel_min             =  -3.6312041633447E+01
(PID.TID 0000.0001) %MON dynstat_uvel_mean            =   1.5515237595214E+00
(PID.TID 0000.0001) %MON dynstat_uvel_sd              =   1.0817339599528E+01
(PID.TID 0000.0001) %MON dynstat_uvel_del2            =   1.9761988772903E-03
(PID.TID 0000.0001) %MON dynstat_vvel_max             =   3.6300846189043E+01
(PID.TID 0000.0001) %MON dynstat_vvel_min             =  -3.6304041369724E+01
(PID.TID 0000.0001) %MON dynstat_vvel_mean            =   1.5571404496126E+00
(PID.TID 0000.0001) %MON dynstat_vvel_sd              =   1.0816711880359E+01
(PID.TID 0000.0001) %MON dynstat_vvel_del2            =   1.9761583783830E-03
(PID.TID 0000.0001) %MON dynstat_wvel_max             =   3.2452712450484E-01
(PID.TID 0000.0001) %MON dynstat_wvel_min             =  -2.4775631478818E-01
(PID.TID 0000.0001) %MON dynstat_wvel_mean            =   2.0127455338329E-16
(PID.TID 0000.0001) %MON dynstat_wvel_sd              =   1.1077478356517E-01
(PID.TID 0000.0001) %MON dynstat_wvel_del2            =   9.7495770086155E-05
(PID.TID 0000.0001) %MON dynstat_theta_max            =   1.1577260387509E+03
(PID.TID 0000.0001) %MON dynstat_theta_min            =   2.5849418667706E+02
(PID.TID 0000.0001) %MON dynstat_theta_mean           =   3.2784996696286E+02
(PID.TID 0000.0001) %MON dynstat_theta_sd             =   9.0436085911866E+01
(PID.TID 0000.0001) %MON dynstat_theta_del2           =   6.8831749529706E-04
(PID.TID 0000.0001) %MON dynstat_salt_max             =   2.2173361696301E-02
(PID.TID 0000.0001) %MON dynstat_salt_min             =   2.3241284044617-239
(PID.TID 0000.0001) %MON dynstat_salt_mean            =   1.9411804383441E-03
(PID.TID 0000.0001) %MON dynstat_salt_sd              =   3.9783408409462E-03
(PID.TID 0000.0001) %MON dynstat_salt_del2            =   8.5592412293090E-07
(PID.TID 0000.0001) %MON advcfl_uvel_max              =   1.0901856404949E-01
(PID.TID 0000.0001) %MON advcfl_vvel_max              =   1.0898759090407E-01
(PID.TID 0000.0001) %MON advcfl_wvel_max              =   1.3011988364250E-02
(PID.TID 0000.0001) %MON advcfl_W_hf_max              =   1.5594298075532E-02
(PID.TID 0000.0001) %MON am_eta_mean                  =  -3.0812946816486E+11
(PID.TID 0000.0001) %MON am_uZo_mean                  =   3.0748280885926E+11
(PID.TID 0000.0001) %MON am_tot_mean                  =  -6.4665930560681E+08
(PID.TID 0000.0001) %MON pe_b_mean                    =   5.4221168842224E+01
(PID.TID 0000.0001) %MON ke_max                       =   6.7082146790525E+02
(PID.TID 0000.0001) %MON ke_mean                      =   1.1942400213509E+02
(PID.TID 0000.0001) %MON ke_vol                       =   5.0986421042785E+19
(PID.TID 0000.0001) %MON vort_r_min                   =  -1.5845255745668E-05
(PID.TID 0000.0001) %MON vort_r_max                   =   1.5840746573176E-05
(PID.TID 0000.0001) %MON vort_a_mean                  =  -1.3972724490575E-19
(PID.TID 0000.0001) %MON vort_a_sd                    =   8.5598592754876E-05
(PID.TID 0000.0001) %MON vort_p_mean                  =  -1.3972693922946E-19
(PID.TID 0000.0001) %MON vort_p_sd                    =   8.4264989042137E-05
(PID.TID 0000.0001) %MON surfExpan_theta_mean         =  -3.8143455437430E+00
(PID.TID 0000.0001) %MON surfExpan_salt_mean          =  -4.0607682960625E-04
(PID.TID 0000.0001) %MON surfExpan_Heat_mean          =  -3.4276113742465E+02
(PID.TID 0000.0001) %MON En_Budget_T2PE_mean          =   6.7630020775999E+01
(PID.TID 0000.0001) // =======================================================
(PID.TID 0000.0001) // End MONITOR dynamic field statistics
(PID.TID 0000.0001) // =======================================================
 cg2d: Sum(rhs),rhsMax =  -7.45058059692383E-09  4.85756057838264E+04
(PID.TID 0000.0001)      cg2d_init_res =   5.42617997534690E+04
(PID.TID 0000.0001)      cg2d_iters(min,last) =      -1      14
(PID.TID 0000.0001)      cg2d_last_res =   1.90408604066836E-11
(PID.TID 0000.0001) // =======================================================
(PID.TID 0000.0001) // Begin MONITOR dynamic field statistics
(PID.TID 0000.0001) // =======================================================
(PID.TID 0000.0001) %MON time_tsnumber                =                    40
(PID.TID 0000.0001) %MON time_secondsf                =   1.4400000000000E+04
(PID.TID 0000.0001) %MON dynstat_eta_max              =   6.0693804533535E+03
(PID.TID 0000.0001) %MON dynstat_eta_min              =  -4.6340718840262E+03
(PID.TID 0000.0001) %MON dynstat_eta_mean             =  -2.5707236813114E-13
(PID.TID 0000.0001) %MON dynstat_eta_sd               =   3.6804119198945E+03
(PID.TID 0000.0001) %MON dynstat_eta_del2             =   8.7256379788601E-01
(PID.TID 0000.0001) %MON dynstat_uvel_max             =   3.6719256306880E+01
(PID.TID 0000.0001) %MON dynstat_uvel_min             =  -3.6715331835567E+01
(PID.TID 0000.0001) %MON dynstat_uvel_mean            =   1.5958235465265E+00
(PID.TID 0000.0001) %MON dynstat_uvel_sd              =   1.0910337265663E+01
(PID.TID 0000.0001) %MON dynstat_uvel_del2            =   1.9900057344476E-03
(PID.TID 0000.0001) %MON dynstat_vvel_max             =   3.6703924510835E+01
(PID.TID 0000.0001) %MON dynstat_vvel_min             =  -3.6707097520044E+01
(PID.TID 0000.0001) %MON dynstat_vvel_mean            =   1.6015960820984E+00
(PID.TID 0000.0001) %MON dynstat_vvel_sd              =   1.0909656128431E+01
(PID.TID 0000.0001) %MON dynstat_vvel_del2            =   1.9897639410428E-03
(PID.TID 0000.0001) %MON dynstat_wvel_max             =   3.2778776983415E-01
(PID.TID 0000.0001) %MON dynstat_wvel_min             =  -2.4092610739129E-01
(PID.TID 0000.0001) %MON dynstat_wvel_mean            =   2.4656132789454E-16
(PID.TID 0000.0001) %MON dynstat_wvel_sd              =   1.1179887952727E-01
(PID.TID 0000.0001) %MON dynstat_wvel_del2            =   9.7906741231024E-05
(PID.TID 0000.0001) %MON dynstat_theta_max            =   1.1579082332043E+03
(PID.TID 0000.0001) %MON dynstat_theta_min            =   2.5854554478562E+02
(PID.TID 0000.0001) %MON dynstat_theta_mean           =   3.2784630135376E+02
(PID.TID 0000.0001) %MON dynstat_theta_sd             =   9.0439752918860E+01
(PID.TID 0000.0001) %MON dynstat_theta_del2           =   6.8721159864924E-04
(PID.TID 0000.0001) %MON dynstat_salt_max             =   2.2318086094816E-02
(PID.TID 0000.0001) %MON dynstat_salt_min             =   6.4104214455625-209
(PID.TID 0000.0001) %MON dynstat_salt_mean            =   1.9467831882488E-03
(PID.TID 0000.0001) %MON dynstat_salt_sd              =   3.9890704653232E-03
(PID.TID 0000.0001) %MON dynstat_salt_del2            =   8.5081895043104E-07
(PID.TID 0000.0001) %MON advcfl_uvel_max              =   1.0979311376000E-01
(PID.TID 0000.0001) %MON advcfl_vvel_max              =   1.0976125091203E-01
(PID.TID 0000.0001) %MON advcfl_wvel_max              =   1.3218788960521E-02
(PID.TID 0000.0001) %MON advcfl_W_hf_max              =   1.5848571779531E-02
(PID.TID 0000.0001) %MON am_eta_mean                  =  -3.1747041418997E+11
(PID.TID 0000.0001) %MON am_uZo_mean                  =   3.1680486484630E+11
(PID.TID 0000.0001) %MON am_tot_mean                  =  -6.6554934367194E+08
(PID.TID 0000.0001) %MON pe_b_mean                    =   5.7368631799790E+01
(PID.TID 0000.0001) %MON ke_max                       =   6.8546890837037E+02
(PID.TID 0000.0001) %MON ke_mean                      =   1.2158390944636E+02
(PID.TID 0000.0001) %MON ke_vol                       =   5.0986421042785E+19
(PID.TID 0000.0001) %MON vort_r_min                   =  -1.6224372908605E-05
(PID.TID 0000.0001) %MON vort_r_max                   =   1.6220006537008E-05
(PID.TID 0000.0001) %MON vort_a_mean                  =  -8.3346075908695E-20
(PID.TID 0000.0001) %MON vort_a_sd                    =   8.5642713472644E-05
(PID.TID 0000.0001) %MON vort_p_mean                  =  -8.0894535884905E-20
(PID.TID 0000.0001) %MON vort_p_sd                    =   8.4267499635414E-05
(PID.TID 0000.0001) %MON surfExpan_theta_mean         =  -3.6635946920640E+00
(PID.TID 0000.0001) %MON surfExpan_salt_mean          =  -3.9335270419850E-04
(PID.TID 0000.0001) %MON surfExpan_Heat_mean          =  -3.2949254919762E+02
(PID.TID 0000.0001) %MON En_Budget_T2PE_mean          =   6.7692856244360E+01
(PID.TID 0000.0001) // =======================================================
(PID.TID 0000.0001) // End MONITOR dynamic field statistics
(PID.TID 0000.0001) // =======================================================
(PID.TID 0000.0001) DIAGSTATS_CLOSE_IO: close file: dynStDiag.0000000000.txt , unit=     9
(PID.TID 0000.0001) DIAGSTATS_CLOSE_IO: close file: diffStDiag.0000000000.txt , unit=    10
(PID.TID 0000.0001) DIAGSTATS_CLOSE_IO: close file: flxStDiag.0000000000.txt , unit=    16
(PID.TID 0000.0001) %CHECKPOINT        40 ckptA
(PID.TID 0000.0001)   Seconds in section "ALL                    [THE_MODEL_MAIN]":
(PID.TID 0000.0001)           User time:   123.26000000000001
(PID.TID 0000.0001)         System time:  0.89000000000000001
(PID.TID 0000.0001)     Wall clock time:   124.43273401260376
(PID.TID 0000.0001)          No. starts:           1
(PID.TID 0000.0001)           No. stops:           1
(PID.TID 0000.0001)   Seconds in section "INITIALISE_FIXED       [THE_MODEL_MAIN]":
(PID.TID 0000.0001)           User time:  0.29999999999999999
(PID.TID 0000.0001)         System time:  4.00000000000000008E-002
(PID.TID 0000.0001)     Wall clock time:  0.35781192779541016
(PID.TID 0000.0001)          No. starts:           1
(PID.TID 0000.0001)           No. stops:           1
(PID.TID 0000.0001)   Seconds in section "THE_MAIN_LOOP          [THE_MODEL_MAIN]":
(PID.TID 0000.0001)           User time:   122.96000000000001
(PID.TID 0000.0001)         System time:  0.84999999999999998
(PID.TID 0000.0001)     Wall clock time:   124.07488489151001
(PID.TID 0000.0001)          No. starts:           1
(PID.TID 0000.0001)           No. stops:           1
(PID.TID 0000.0001)   Seconds in section "INITIALISE_VARIA    [THE_MAIN_LOOP]":
(PID.TID 0000.0001)           User time:   1.1899999999999999
(PID.TID 0000.0001)         System time:  6.00000000000000047E-002
(PID.TID 0000.0001)     Wall clock time:   1.2508230209350586
(PID.TID 0000.0001)          No. starts:           1
(PID.TID 0000.0001)           No. stops:           1
(PID.TID 0000.0001)   Seconds in section "MAIN LOOP           [THE_MAIN_LOOP]":
(PID.TID 0000.0001)           User time:   121.77000000000001
(PID.TID 0000.0001)         System time:  0.79000000000000004
(PID.TID 0000.0001)     Wall clock time:   122.82402181625366
(PID.TID 0000.0001)          No. starts:           1
(PID.TID 0000.0001)           No. stops:           1
(PID.TID 0000.0001)   Seconds in section "MAIN_DO_LOOP        [THE_MAIN_LOOP]":
(PID.TID 0000.0001)           User time:   121.76999999999998
(PID.TID 0000.0001)         System time:  0.79000000000000059
(PID.TID 0000.0001)     Wall clock time:   122.82365083694458
(PID.TID 0000.0001)          No. starts:          40
(PID.TID 0000.0001)           No. stops:          40
(PID.TID 0000.0001)   Seconds in section "FORWARD_STEP        [MAIN_DO_LOOP]":
(PID.TID 0000.0001)           User time:   121.76999999999998
(PID.TID 0000.0001)         System time:  0.79000000000000059
(PID.TID 0000.0001)     Wall clock time:   122.82289171218872
(PID.TID 0000.0001)          No. starts:          40
(PID.TID 0000.0001)           No. stops:          40
(PID.TID 0000.0001)   Seconds in section "DO_STATEVARS_DIAGS  [FORWARD_STEP]":
(PID.TID 0000.0001)           User time:   4.9400000000000261
(PID.TID 0000.0001)         System time:   0.0000000000000000
(PID.TID 0000.0001)     Wall clock time:   4.9806427955627441
(PID.TID 0000.0001)          No. starts:         120
(PID.TID 0000.0001)           No. stops:         120
(PID.TID 0000.0001)   Seconds in section "LOAD_FIELDS_DRIVER  [FORWARD_STEP]":
(PID.TID 0000.0001)           User time:  0.12999999999996703
(PID.TID 0000.0001)         System time:   0.0000000000000000
(PID.TID 0000.0001)     Wall clock time:  0.12077975273132324
(PID.TID 0000.0001)          No. starts:          40
(PID.TID 0000.0001)           No. stops:          40
(PID.TID 0000.0001)   Seconds in section "EXTERNAL_FLDS_LOAD [LOAD_FLDS_DRIVER]":
(PID.TID 0000.0001)           User time:   0.0000000000000000
(PID.TID 0000.0001)         System time:   0.0000000000000000
(PID.TID 0000.0001)     Wall clock time:  3.95774841308593750E-004
(PID.TID 0000.0001)          No. starts:          40
(PID.TID 0000.0001)           No. stops:          40
(PID.TID 0000.0001)   Seconds in section "CPL_EXPORT-IMPORT  [FORWARD_STEP]":
(PID.TID 0000.0001)           User time:  9.99999999999090505E-003
(PID.TID 0000.0001)         System time:   0.0000000000000000
(PID.TID 0000.0001)     Wall clock time:  1.34902000427246094E-002
(PID.TID 0000.0001)          No. starts:          40
(PID.TID 0000.0001)           No. stops:          40
(PID.TID 0000.0001)   Seconds in section "DO_ATMOSPHERIC_PHYS [FORWARD_STEP]":
(PID.TID 0000.0001)           User time:   13.510000000000048
(PID.TID 0000.0001)         System time:  0.76000000000000034
(PID.TID 0000.0001)     Wall clock time:   14.322156667709351
(PID.TID 0000.0001)          No. starts:          40
(PID.TID 0000.0001)           No. stops:          40
(PID.TID 0000.0001)   Seconds in section "ATM_PHYS_DRIVER [DO_ATMOSPHERIC_PHYS]":
(PID.TID 0000.0001)           User time:   13.510000000000048
(PID.TID 0000.0001)         System time:  0.76000000000000034
(PID.TID 0000.0001)     Wall clock time:   14.321316242218018
(PID.TID 0000.0001)          No. starts:          40
(PID.TID 0000.0001)           No. stops:          40
(PID.TID 0000.0001)   Seconds in section "DO_OCEANIC_PHYS     [FORWARD_STEP]":
(PID.TID 0000.0001)           User time:  1.99999999999960210E-002
(PID.TID 0000.0001)         System time:   0.0000000000000000
(PID.TID 0000.0001)     Wall clock time:  1.00154876708984375E-002
(PID.TID 0000.0001)          No. starts:          40
(PID.TID 0000.0001)           No. stops:          40
(PID.TID 0000.0001)   Seconds in section "DYNAMICS            [FORWARD_STEP]":
(PID.TID 0000.0001)           User time:   28.619999999999976
(PID.TID 0000.0001)         System time:  1.00000000000000089E-002
(PID.TID 0000.0001)     Wall clock time:   28.685276508331299
(PID.TID 0000.0001)          No. starts:          40
(PID.TID 0000.0001)           No. stops:          40
(PID.TID 0000.0001)   Seconds in section "UPDATE_R_STAR       [FORWARD_STEP]":
(PID.TID 0000.0001)           User time:   2.0800000000000125
(PID.TID 0000.0001)         System time:   0.0000000000000000
(PID.TID 0000.0001)     Wall clock time:   2.0736122131347656
(PID.TID 0000.0001)          No. starts:          40
(PID.TID 0000.0001)           No. stops:          40
(PID.TID 0000.0001)   Seconds in section "UPDATE_CG2D         [FORWARD_STEP]":
(PID.TID 0000.0001)           User time:  0.79999999999998295
(PID.TID 0000.0001)         System time:   0.0000000000000000
(PID.TID 0000.0001)     Wall clock time:  0.78084826469421387
(PID.TID 0000.0001)          No. starts:          40
(PID.TID 0000.0001)           No. stops:          40
(PID.TID 0000.0001)   Seconds in section "SOLVE_FOR_PRESSURE  [FORWARD_STEP]":
(PID.TID 0000.0001)           User time:   2.6000000000000085
(PID.TID 0000.0001)         System time:   0.0000000000000000
(PID.TID 0000.0001)     Wall clock time:   2.6354825496673584
(PID.TID 0000.0001)          No. starts:          40
(PID.TID 0000.0001)           No. stops:          40
(PID.TID 0000.0001)   Seconds in section "MOM_CORRECTION_STEP [FORWARD_STEP]":
(PID.TID 0000.0001)           User time:   14.399999999999977
(PID.TID 0000.0001)         System time:   0.0000000000000000
(PID.TID 0000.0001)     Wall clock time:   14.424660682678223
(PID.TID 0000.0001)          No. starts:          40
(PID.TID 0000.0001)           No. stops:          40
(PID.TID 0000.0001)   Seconds in section "SHAP_FILT_UV       [MOM_CORR_STEP]":
(PID.TID 0000.0001)           User time:   13.490000000000023
(PID.TID 0000.0001)         System time:   0.0000000000000000
(PID.TID 0000.0001)     Wall clock time:   13.515045166015625
(PID.TID 0000.0001)          No. starts:          40
(PID.TID 0000.0001)           No. stops:          40
(PID.TID 0000.0001)   Seconds in section "INTEGR_CONTINUITY   [FORWARD_STEP]":
(PID.TID 0000.0001)           User time:   2.4099999999999966
(PID.TID 0000.0001)         System time:   0.0000000000000000
(PID.TID 0000.0001)     Wall clock time:   2.4290199279785156
(PID.TID 0000.0001)          No. starts:          40
(PID.TID 0000.0001)           No. stops:          40
(PID.TID 0000.0001)   Seconds in section "CALC_R_STAR         [FORWARD_STEP]":
(PID.TID 0000.0001)           User time:  0.26999999999999602
(PID.TID 0000.0001)         System time:   0.0000000000000000
(PID.TID 0000.0001)     Wall clock time:  0.24942302703857422
(PID.TID 0000.0001)          No. starts:          40
(PID.TID 0000.0001)           No. stops:          40
(PID.TID 0000.0001)   Seconds in section "BLOCKING_EXCHANGES  [FORWARD_STEP]":
(PID.TID 0000.0001)           User time:   1.7800000000000011
(PID.TID 0000.0001)         System time:   0.0000000000000000
(PID.TID 0000.0001)     Wall clock time:   1.8244006633758545
(PID.TID 0000.0001)          No. starts:          80
(PID.TID 0000.0001)           No. stops:          80
(PID.TID 0000.0001)   Seconds in section "THERMODYNAMICS      [FORWARD_STEP]":
(PID.TID 0000.0001)           User time:   29.529999999999987
(PID.TID 0000.0001)         System time:   0.0000000000000000
(PID.TID 0000.0001)     Wall clock time:   29.565926790237427
(PID.TID 0000.0001)          No. starts:          40
(PID.TID 0000.0001)           No. stops:          40
(PID.TID 0000.0001)   Seconds in section "TRC_CORRECTION_STEP [FORWARD_STEP]":
(PID.TID 0000.0001)           User time:   6.0099999999999767
(PID.TID 0000.0001)         System time:   0.0000000000000000
(PID.TID 0000.0001)     Wall clock time:   6.0215282440185547
(PID.TID 0000.0001)          No. starts:          40
(PID.TID 0000.0001)           No. stops:          40
(PID.TID 0000.0001)   Seconds in section "SHAP_FILT_TS       [TRC_CORR_STEP]":
(PID.TID 0000.0001)           User time:   5.5300000000000011
(PID.TID 0000.0001)         System time:   0.0000000000000000
(PID.TID 0000.0001)     Wall clock time:   5.5362305641174316
(PID.TID 0000.0001)          No. starts:          40
(PID.TID 0000.0001)           No. stops:          40
(PID.TID 0000.0001)   Seconds in section "MONITOR             [FORWARD_STEP]":
(PID.TID 0000.0001)           User time:   14.479999999999990
(PID.TID 0000.0001)         System time:   0.0000000000000000
(PID.TID 0000.0001)     Wall clock time:   14.492637634277344
(PID.TID 0000.0001)          No. starts:          40
(PID.TID 0000.0001)           No. stops:          40
(PID.TID 0000.0001)   Seconds in section "DO_THE_MODEL_IO     [FORWARD_STEP]":
(PID.TID 0000.0001)           User time:  6.99999999999931788E-002
(PID.TID 0000.0001)         System time:  1.00000000000000089E-002
(PID.TID 0000.0001)     Wall clock time:  7.44743347167968750E-002
(PID.TID 0000.0001)          No. starts:          40
(PID.TID 0000.0001)           No. stops:          40
(PID.TID 0000.0001)   Seconds in section "DO_WRITE_PICKUP     [FORWARD_STEP]":
(PID.TID 0000.0001)           User time:  9.00000000000034106E-002
(PID.TID 0000.0001)         System time:  1.00000000000000089E-002
(PID.TID 0000.0001)     Wall clock time:  0.10938715934753418
(PID.TID 0000.0001)          No. starts:          40
(PID.TID 0000.0001)           No. stops:          40
(PID.TID 0000.0001) // ======================================================
(PID.TID 0000.0001) // Tile <-> Tile communication statistics
(PID.TID 0000.0001) // ======================================================
(PID.TID 0000.0001) // o Tile number: 000001
(PID.TID 0000.0001) //         No. X exchanges =              0
(PID.TID 0000.0001) //            Max. X spins =              0
(PID.TID 0000.0001) //            Min. X spins =     1000000000
(PID.TID 0000.0001) //          Total. X spins =              0
(PID.TID 0000.0001) //            Avg. X spins =       0.00E+00
(PID.TID 0000.0001) //         No. Y exchanges =              0
(PID.TID 0000.0001) //            Max. Y spins =              0
(PID.TID 0000.0001) //            Min. Y spins =     1000000000
(PID.TID 0000.0001) //          Total. Y spins =              0
(PID.TID 0000.0001) //            Avg. Y spins =       0.00E+00
(PID.TID 0000.0001) // o Tile number: 000002
(PID.TID 0000.0001) //         No. X exchanges =              0
(PID.TID 0000.0001) //            Max. X spins =              0
(PID.TID 0000.0001) //            Min. X spins =     1000000000
(PID.TID 0000.0001) //          Total. X spins =              0
(PID.TID 0000.0001) //            Avg. X spins =       0.00E+00
(PID.TID 0000.0001) //         No. Y exchanges =              0
(PID.TID 0000.0001) //            Max. Y spins =              0
(PID.TID 0000.0001) //            Min. Y spins =     1000000000
(PID.TID 0000.0001) //          Total. Y spins =              0
(PID.TID 0000.0001) //            Avg. Y spins =       0.00E+00
(PID.TID 0000.0001) // o Tile number: 000003
(PID.TID 0000.0001) //         No. X exchanges =              0
(PID.TID 0000.0001) //            Max. X spins =              0
(PID.TID 0000.0001) //            Min. X spins =     1000000000
(PID.TID 0000.0001) //          Total. X spins =              0
(PID.TID 0000.0001) //            Avg. X spins =       0.00E+00
(PID.TID 0000.0001) //         No. Y exchanges =              0
(PID.TID 0000.0001) //            Max. Y spins =              0
(PID.TID 0000.0001) //            Min. Y spins =     1000000000
(PID.TID 0000.0001) //          Total. Y spins =              0
(PID.TID 0000.0001) //            Avg. Y spins =       0.00E+00
(PID.TID 0000.0001) // o Tile number: 000004
(PID.TID 0000.0001) //         No. X exchanges =              0
(PID.TID 0000.0001) //            Max. X spins =              0
(PID.TID 0000.0001) //            Min. X spins =     1000000000
(PID.TID 0000.0001) //          Total. X spins =              0
(PID.TID 0000.0001) //            Avg. X spins =       0.00E+00
(PID.TID 0000.0001) //         No. Y exchanges =              0
(PID.TID 0000.0001) //            Max. Y spins =              0
(PID.TID 0000.0001) //            Min. Y spins =     1000000000
(PID.TID 0000.0001) //          Total. Y spins =              0
(PID.TID 0000.0001) //            Avg. Y spins =       0.00E+00
(PID.TID 0000.0001) // o Tile number: 000005
(PID.TID 0000.0001) //         No. X exchanges =              0
(PID.TID 0000.0001) //            Max. X spins =              0
(PID.TID 0000.0001) //            Min. X spins =     1000000000
(PID.TID 0000.0001) //          Total. X spins =              0
(PID.TID 0000.0001) //            Avg. X spins =       0.00E+00
(PID.TID 0000.0001) //         No. Y exchanges =              0
(PID.TID 0000.0001) //            Max. Y spins =              0
(PID.TID 0000.0001) //            Min. Y spins =     1000000000
(PID.TID 0000.0001) //          Total. Y spins =              0
(PID.TID 0000.0001) //            Avg. Y spins =       0.00E+00
(PID.TID 0000.0001) // o Tile number: 000006
(PID.TID 0000.0001) //         No. X exchanges =              0
(PID.TID 0000.0001) //            Max. X spins =              0
(PID.TID 0000.0001) //            Min. X spins =     1000000000
(PID.TID 0000.0001) //          Total. X spins =              0
(PID.TID 0000.0001) //            Avg. X spins =       0.00E+00
(PID.TID 0000.0001) //         No. Y exchanges =              0
(PID.TID 0000.0001) //            Max. Y spins =              0
(PID.TID 0000.0001) //            Min. Y spins =     1000000000
(PID.TID 0000.0001) //          Total. Y spins =              0
(PID.TID 0000.0001) //            Avg. Y spins =       0.00E+00
(PID.TID 0000.0001) // o Thread number: 000001
(PID.TID 0000.0001) //            No. barriers =          17534
(PID.TID 0000.0001) //      Max. barrier spins =              1
(PID.TID 0000.0001) //      Min. barrier spins =              1
(PID.TID 0000.0001) //     Total barrier spins =          17534
(PID.TID 0000.0001) //      Avg. barrier spins =       1.00E+00
PROGRAM MAIN: Execution ended Normally
