(PID.TID 0000.0001) 
(PID.TID 0000.0001) // ======================================================
(PID.TID 0000.0001) //                      MITgcm UV
(PID.TID 0000.0001) //                      =========
(PID.TID 0000.0001) // ======================================================
(PID.TID 0000.0001) // execution environment starting up...
(PID.TID 0000.0001) 
(PID.TID 0000.0001) // MITgcmUV version:  checkpoint65h
(PID.TID 0000.0001) // Build user:        jmc
(PID.TID 0000.0001) // Build host:        baudelaire
(PID.TID 0000.0001) // Build date:        Wed Jan 21 10:17:42 EST 2015
(PID.TID 0000.0001) 
(PID.TID 0000.0001) // =======================================================
(PID.TID 0000.0001) // Execution Environment parameter file "eedata"
(PID.TID 0000.0001) // =======================================================
(PID.TID 0000.0001) ># Example "eedata" file
(PID.TID 0000.0001) ># Lines beginning "#" are comments
(PID.TID 0000.0001) ># nTx - No. threads per process in X
(PID.TID 0000.0001) ># nTy - No. threads per process in Y
(PID.TID 0000.0001) > &EEPARMS
(PID.TID 0000.0001) > useCoupler=.TRUE.,
(PID.TID 0000.0001) > useCubedSphereExchange=.TRUE.,
(PID.TID 0000.0001) > nTx=1,
(PID.TID 0000.0001) > nTy=1,
(PID.TID 0000.0001) >#debugMode=.TRUE.,
(PID.TID 0000.0001) > /
(PID.TID 0000.0001) ># Note: Some systems use & as the namelist terminator (as shown here).
(PID.TID 0000.0001) >#       Other systems use a / character.
(PID.TID 0000.0001) 
(PID.TID 0000.0001) // =======================================================
(PID.TID 0000.0001) // Computational Grid Specification ( see files "SIZE.h" )
(PID.TID 0000.0001) //                                  ( and "eedata"       )
(PID.TID 0000.0001) // =======================================================
(PID.TID 0000.0001)      nPx =    1 ; /* No. processes in X */
(PID.TID 0000.0001)      nPy =    1 ; /* No. processes in Y */
(PID.TID 0000.0001)      nSx =    6 ; /* No. tiles in X per process */
(PID.TID 0000.0001)      nSy =    1 ; /* No. tiles in Y per process */
(PID.TID 0000.0001)      sNx =   32 ; /* Tile size in X */
(PID.TID 0000.0001)      sNy =   32 ; /* Tile size in Y */
(PID.TID 0000.0001)      OLx =    4 ; /* Tile overlap distance in X */
(PID.TID 0000.0001)      OLy =    4 ; /* Tile overlap distance in Y */
(PID.TID 0000.0001)      nTx =    1 ; /* No. threads in X per process */
(PID.TID 0000.0001)      nTy =    1 ; /* No. threads in Y per process */
(PID.TID 0000.0001)       Nr =   26 ; /* No. levels in the vertical   */
(PID.TID 0000.0001)       Nx =  192 ; /* Total domain size in X ( = nPx*nSx*sNx ) */
(PID.TID 0000.0001)       Ny =   32 ; /* Total domain size in Y ( = nPy*nSy*sNy ) */
(PID.TID 0000.0001)   nTiles =    6 ; /* Total no. tiles per process ( = nSx*nSy ) */
(PID.TID 0000.0001)   nProcs =    1 ; /* Total no. processes ( = nPx*nPy ) */
(PID.TID 0000.0001) nThreads =    1 ; /* Total no. threads per process ( = nTx*nTy ) */
(PID.TID 0000.0001) usingMPI =    T ; /* Flag used to control whether MPI is in use */
(PID.TID 0000.0001)                   /*  note: To execute a program with MPI calls */
(PID.TID 0000.0001)                   /*  it must be launched appropriately e.g     */
(PID.TID 0000.0001)                   /*  "mpirun -np 64 ......"                    */
(PID.TID 0000.0001) useCoupler=    T ;/* Flag used to control communications with   */
(PID.TID 0000.0001)                   /*  other model components, through a coupler */
(PID.TID 0000.0001) debugMode =    F ; /* print debug msg. (sequence of S/R calls)  */
(PID.TID 0000.0001) printMapIncludesZeros=    F ; /* print zeros in Std.Output maps */
(PID.TID 0000.0001) maxLengthPrt1D=   65 /* maxLength of 1D array printed to StdOut */
(PID.TID 0000.0001) 
(PID.TID 0000.0001) ======= Starting MPI parallel Run =========
(PID.TID 0000.0001)  My Processor Name (len: 10 ) = baudelaire
(PID.TID 0000.0001)  Located at (  0,  0) on processor grid (0:  0,0:  0)
(PID.TID 0000.0001)  Origin at  (     1,     1) on global grid (1:   192,1:    32)
(PID.TID 0000.0001)  North neighbor = processor 0000
(PID.TID 0000.0001)  South neighbor = processor 0000
(PID.TID 0000.0001)   East neighbor = processor 0000
(PID.TID 0000.0001)   West neighbor = processor 0000
(PID.TID 0000.0001) // ======================================================
(PID.TID 0000.0001) // Mapping of tiles to threads
(PID.TID 0000.0001) // ======================================================
(PID.TID 0000.0001) // -o- Thread   1, tiles (   1:   6,   1:   1)
(PID.TID 0000.0001) 
(PID.TID 0000.0001) W2_READPARMS: file data.exch2 not found
(PID.TID 0000.0001) => use W2_EXCH2 default: regular 6-facets Cube
(PID.TID 0000.0001) W2_useE2ioLayOut=    T ;/* T: use Exch2 glob IO map; F: use model default */
(PID.TID 0000.0001) W2_mapIO        =  -1 ; /* select option for Exch2 global-IO map */
(PID.TID 0000.0001) W2_printMsg     =  -1 ; /* select option for printing information */
(PID.TID 0000.0001) ===== Start setting W2 TOPOLOGY:
(PID.TID 0000.0001)  write to log-file: w2_tile_topology.0000.log
(PID.TID 0000.0001) =====       setting W2 TOPOLOGY: Done
(PID.TID 0000.0001) 
(PID.TID 0000.0001)  INI_PARMS: opening model parameter file "data"
(PID.TID 0000.0001)  OPEN_COPY_DATA_FILE: opening file data
(PID.TID 0000.0001) // =======================================================
(PID.TID 0000.0001) // Parameter file "data"
(PID.TID 0000.0001) // =======================================================
(PID.TID 0000.0001) ># ====================
(PID.TID 0000.0001) ># | Model parameters |
(PID.TID 0000.0001) ># ====================
(PID.TID 0000.0001) >#
(PID.TID 0000.0001) ># Continuous equation parameters
(PID.TID 0000.0001) > &PARM01
(PID.TID 0000.0001) >#- mean theta* from H&S, isothermal (T=200.K) above p=150.mb:
(PID.TID 0000.0001) > tRef= 295.1, 295.2, 295.4, 295.6, 296.0, 296.6, 297.3, 298.2, 299.3, 300.6,
(PID.TID 0000.0001) >       302.4, 305.9, 311.8, 321.8, 338.3, 359.5, 382.8, 408.6, 437.5, 470.6,
(PID.TID 0000.0001) >       509.2, 555.8, 614.9, 696.3, 827.2, 1153.6,
(PID.TID 0000.0001) >#tRef=26*280.,
(PID.TID 0000.0001) > sRef=26*0.,
(PID.TID 0000.0001) > viscAr=0.E1,
(PID.TID 0000.0001) > viscAh=0.E6,
(PID.TID 0000.0001) > viscA4=0.E17,
(PID.TID 0000.0001) > no_slip_sides=.FALSE.,
(PID.TID 0000.0001) > no_slip_bottom=.FALSE.,
(PID.TID 0000.0001) > diffKhT=0.E3,
(PID.TID 0000.0001) > diffKrT=0.,
(PID.TID 0000.0001) > diffK4T=0.E17,
(PID.TID 0000.0001) > diffKrS=0.E2,
(PID.TID 0000.0001) > diffKhS=0.E3,
(PID.TID 0000.0001) > diffK4S=0.E17,
(PID.TID 0000.0001) > buoyancyRelation='ATMOSPHERIC',
(PID.TID 0000.0001) > eosType='IDEALG',
(PID.TID 0000.0001) > atm_Cp=1004.64,
(PID.TID 0000.0001) > atm_Rq=0.6078,
(PID.TID 0000.0001) > Integr_GeoPot=2,
(PID.TID 0000.0001) > selectFindRoSurf=1,
(PID.TID 0000.0001) > gravity=9.80,
(PID.TID 0000.0001) > rhonil=1.0,
(PID.TID 0000.0001) > rhoConst=1.0,
(PID.TID 0000.0001) > rigidLid=.FALSE.,
(PID.TID 0000.0001) > implicitFreeSurface=.TRUE.,
(PID.TID 0000.0001) > exactConserv=.TRUE.,
(PID.TID 0000.0001) > select_rStar=2,
(PID.TID 0000.0001) > nonlinFreeSurf=4,
(PID.TID 0000.0001) > hFacInf=0.2,
(PID.TID 0000.0001) > hFacSup=2.0,
(PID.TID 0000.0001) > hFacMin=1.0,
(PID.TID 0000.0001) > uniformLin_PhiSurf=.FALSE.,
(PID.TID 0000.0001) > vectorInvariantMomentum=.TRUE.,
(PID.TID 0000.0001) > useAbsVorticity=.TRUE.,
(PID.TID 0000.0001) > selectVortScheme=3,
(PID.TID 0000.0001) > selectKEscheme=3,
(PID.TID 0000.0001) > addFrictionHeating=.TRUE.,
(PID.TID 0000.0001) >#tempAdvScheme=77,
(PID.TID 0000.0001) > saltAdvScheme=77,
(PID.TID 0000.0001) > staggerTimeStep=.TRUE.,
(PID.TID 0000.0001) > readBinaryPrec=64,
(PID.TID 0000.0001) > writeBinaryPrec=64,
(PID.TID 0000.0001) >#globalFiles=.TRUE.,
(PID.TID 0000.0001) >#useSingleCpuIO=.TRUE.,
(PID.TID 0000.0001) > /
(PID.TID 0000.0001) >
(PID.TID 0000.0001) ># Elliptic solver parameters
(PID.TID 0000.0001) > &PARM02
(PID.TID 0000.0001) > cg2dMaxIters=200,
(PID.TID 0000.0001) > cg2dTargetResWunit=1.E-17,
(PID.TID 0000.0001) > /
(PID.TID 0000.0001) >
(PID.TID 0000.0001) ># Time stepping parameters
(PID.TID 0000.0001) > &PARM03
(PID.TID 0000.0001) > nIter0=0,
(PID.TID 0000.0001) ># 10.yrs or 8.yrs:
(PID.TID 0000.0001) >#nTimeSteps=864000,
(PID.TID 0000.0001) > nTimeSteps=691200,
(PID.TID 0000.0001) >#endTime=311040000.,
(PID.TID 0000.0001) >#endTime=5184000.,
(PID.TID 0000.0001) > deltaT=360.,
(PID.TID 0000.0001) > abEps=0.1,
(PID.TID 0000.0001) > forcing_In_AB=.FALSE.,
(PID.TID 0000.0001) > cAdjFreq=0.,
(PID.TID 0000.0001) >#- long run (> 1.yr):
(PID.TID 0000.0001) >#pChkptFreq =311040000.,
(PID.TID 0000.0001) >#chkptFreq  = 77760000.,
(PID.TID 0000.0001) > pChkptFreq =248832000.,
(PID.TID 0000.0001) > chkptFreq  = 62208000.,
(PID.TID 0000.0001) > dumpFreq   = 31104000.,
(PID.TID 0000.0001) > monitorFreq= 2592000.,
(PID.TID 0000.0001) >#- short run (~ months):
(PID.TID 0000.0001) >#pChkptFreq = 2592000.,
(PID.TID 0000.0001) >#chkptFreq  =  864000.,
(PID.TID 0000.0001) >#dumpFreq   =  432000.,
(PID.TID 0000.0001) >#monitorFreq=  43200.,
(PID.TID 0000.0001) >#- short test:
(PID.TID 0000.0001) > nTimeSteps=40,
(PID.TID 0000.0001) >#dumpFreq   =1.,
(PID.TID 0000.0001) > monitorFreq=1.,
(PID.TID 0000.0001) > /
(PID.TID 0000.0001) >
(PID.TID 0000.0001) ># Gridding parameters
(PID.TID 0000.0001) > &PARM04
(PID.TID 0000.0001) > usingCurvilinearGrid=.TRUE.,
(PID.TID 0000.0001) > horizGridFile='dxC1_dXYa',
(PID.TID 0000.0001) > radius_fromHorizGrid=6370.E3,
(PID.TID 0000.0001) >#delR=25*40.E2,
(PID.TID 0000.0001) > delR= 1500., 2122., 3000., 4242., 6000., 7800., 9100., 9400., 9280., 8400.,
(PID.TID 0000.0001) >       6980., 5800., 4820., 4004., 3328., 2766., 2298., 1910., 1586., 1318.,
(PID.TID 0000.0001) >       1096.,  910.,  756.,  628.,  522.,  434.,
(PID.TID 0000.0001) > Ro_SeaLevel=1.E5,
(PID.TID 0000.0001) > /
(PID.TID 0000.0001) >
(PID.TID 0000.0001) ># Input datasets
(PID.TID 0000.0001) > &PARM05
(PID.TID 0000.0001) > hydrogThetaFile='ini_theta_26l.bin',
(PID.TID 0000.0001) > hydrogSaltFile ='ini_specQ_26l.bin',
(PID.TID 0000.0001) > /
(PID.TID 0000.0001) 
(PID.TID 0000.0001)  INI_PARMS ; starts to read PARM01
(PID.TID 0000.0001)  INI_PARMS ; read PARM01 : OK
(PID.TID 0000.0001)  INI_PARMS ; starts to read PARM02
(PID.TID 0000.0001)  INI_PARMS ; read PARM02 : OK
(PID.TID 0000.0001)  INI_PARMS ; starts to read PARM03
(PID.TID 0000.0001)  INI_PARMS ; read PARM03 : OK
(PID.TID 0000.0001)  INI_PARMS ; starts to read PARM04
(PID.TID 0000.0001)  INI_PARMS ; read PARM04 : OK
(PID.TID 0000.0001)  INI_PARMS ; starts to read PARM05
(PID.TID 0000.0001)  INI_PARMS ; read PARM05 : OK
(PID.TID 0000.0001)  INI_PARMS: finished reading file "data"
(PID.TID 0000.0001)  PACKAGES_BOOT: opening data.pkg
(PID.TID 0000.0001)  OPEN_COPY_DATA_FILE: opening file data.pkg
(PID.TID 0000.0001) // =======================================================
(PID.TID 0000.0001) // Parameter file "data.pkg"
(PID.TID 0000.0001) // =======================================================
(PID.TID 0000.0001) ># Packages
(PID.TID 0000.0001) > &PACKAGES
(PID.TID 0000.0001) > useSHAP_FILT=.TRUE.,
(PID.TID 0000.0001) > useDiagnostics=.TRUE.,
(PID.TID 0000.0001) > useAtm_Phys=.TRUE.,
(PID.TID 0000.0001) >#useMNC = .TRUE.,
(PID.TID 0000.0001) > /
(PID.TID 0000.0001) 
(PID.TID 0000.0001)  PACKAGES_BOOT: finished reading data.pkg
(PID.TID 0000.0001)  PACKAGES_BOOT: On/Off package Summary
 --------  pkgs with a standard "usePKG" On/Off switch in "data.pkg":  --------
 pkg/shap_filt            compiled   and   used ( useSHAP_FILT             = T )
 pkg/atm_phys             compiled   and   used ( useAtm_Phys              = T )
 pkg/diagnostics          compiled   and   used ( useDiagnostics           = T )
 -------- pkgs without standard "usePKG" On/Off switch in "data.pkg":  --------
 pkg/generic_advdiff      compiled   and   used ( useGAD                   = T )
 pkg/mom_common           compiled   and   used ( momStepping              = T )
 pkg/mom_vecinv           compiled   and   used ( +vectorInvariantMomentum = T )
 pkg/mom_fluxform         compiled but not used ( & not vectorInvariantMom = F )
 pkg/monitor              compiled   and   used ( monitorFreq > 0.         = T )
 pkg/debug                compiled but not used ( debugMode                = F )
 pkg/compon_communic      compiled   and   used ( useCoupler               = T )
 pkg/atm_compon_interf    compiled   and   used ( useCoupler               = T )
 pkg/exch2                compiled   and   used
 pkg/rw                   compiled   and   used
 pkg/mdsio                compiled   and   used
(PID.TID 0000.0001)  PACKAGES_BOOT: End of package Summary
(PID.TID 0000.0001) 
(PID.TID 0000.0001)  SHAP_FILT_READPARMS: opening data.shap
(PID.TID 0000.0001)  OPEN_COPY_DATA_FILE: opening file data.shap
(PID.TID 0000.0001) // =======================================================
(PID.TID 0000.0001) // Parameter file "data.shap"
(PID.TID 0000.0001) // =======================================================
(PID.TID 0000.0001) ># Shapiro Filter parameters
(PID.TID 0000.0001) > &SHAP_PARM01
(PID.TID 0000.0001) > shap_filt_uvStar=.FALSE.,
(PID.TID 0000.0001) > shap_filt_TrStagg=.TRUE.,
(PID.TID 0000.0001) > Shap_funct=2,
(PID.TID 0000.0001) > nShapT=4,
(PID.TID 0000.0001) > nShapS=0,
(PID.TID 0000.0001) > nShapUV=4,
(PID.TID 0000.0001) > nShapTrPhys=1,
(PID.TID 0000.0001) > nShapUVPhys=0,
(PID.TID 0000.0001) > Shap_TrLength=140000.,
(PID.TID 0000.0001) >#Shap_TrLength=115000.,
(PID.TID 0000.0001) >#Shap_uvLength=110000.,
(PID.TID 0000.0001) >#Shap_Trtau=5400.,
(PID.TID 0000.0001) >#Shap_uvtau=5400.,
(PID.TID 0000.0001) > Shap_Trtau=1800.,
(PID.TID 0000.0001) > Shap_uvtau= 900.,
(PID.TID 0000.0001) > /
(PID.TID 0000.0001) >
(PID.TID 0000.0001) 
(PID.TID 0000.0001)  SHAP_FILT_READPARMS: finished reading data.shap
(PID.TID 0000.0001) Shap_funct =   /* select Shapiro filter function */
(PID.TID 0000.0001)                       2
(PID.TID 0000.0001)     ;
(PID.TID 0000.0001) nShapT =   /* power of Shapiro filter for Temperat */
(PID.TID 0000.0001)                       4
(PID.TID 0000.0001)     ;
(PID.TID 0000.0001) nShapS =   /* power of Shapiro filter for Salinity */
(PID.TID 0000.0001)                       0
(PID.TID 0000.0001)     ;
(PID.TID 0000.0001) nShapUV =   /* power of Shapiro filter for momentum */
(PID.TID 0000.0001)                       4
(PID.TID 0000.0001)     ;
(PID.TID 0000.0001) shap_filt_uvStar = /* apply filter before Press. Solver */
(PID.TID 0000.0001)                   F
(PID.TID 0000.0001)     ;
(PID.TID 0000.0001) shap_filt_TrStagg = /* filter T,S before calc PhiHyd (staggerTimeStep) */
(PID.TID 0000.0001)                   T
(PID.TID 0000.0001)     ;
(PID.TID 0000.0001) Shap_alwaysExchUV = /* always exch(U,V)    nShapUV times*/
(PID.TID 0000.0001)                   F
(PID.TID 0000.0001)     ;
(PID.TID 0000.0001) Shap_alwaysExchTr = /* always exch(Tracer) nShapTr times*/
(PID.TID 0000.0001)                   F
(PID.TID 0000.0001)     ;
(PID.TID 0000.0001) nShapTrPhys =   /* power of physical-space filter (Tracer) */
(PID.TID 0000.0001)                       1
(PID.TID 0000.0001)     ;
(PID.TID 0000.0001) nShapUVPhys =   /* power of physical-space filter (Momentum) */
(PID.TID 0000.0001)                       0
(PID.TID 0000.0001)     ;
(PID.TID 0000.0001) Shap_Trtau =   /* time scale of Shapiro filter (Tracer) */
(PID.TID 0000.0001)                 1.800000000000000E+03
(PID.TID 0000.0001)     ;
(PID.TID 0000.0001) Shap_TrLength =   /* Length scale of Shapiro filter (Tracer) */
(PID.TID 0000.0001)                 1.400000000000000E+05
(PID.TID 0000.0001)     ;
(PID.TID 0000.0001) Shap_uvtau =   /* time scale of Shapiro filter (Momentum) */
(PID.TID 0000.0001)                 9.000000000000000E+02
(PID.TID 0000.0001)     ;
(PID.TID 0000.0001) Shap_uvLength =   /* Length scale of Shapiro filter (Momentum) */
(PID.TID 0000.0001)                 0.000000000000000E+00
(PID.TID 0000.0001)     ;
(PID.TID 0000.0001) Shap_noSlip =  /* No-slip parameter (0=Free-slip ; 1=No-slip)*/
(PID.TID 0000.0001)                 0.000000000000000E+00
(PID.TID 0000.0001)     ;
(PID.TID 0000.0001) Shap_diagFreq =   /* Frequency^-1 for diagnostic output (s)*/
(PID.TID 0000.0001)                 0.000000000000000E+00
(PID.TID 0000.0001)     ;
(PID.TID 0000.0001) ATM_PHYS_READPARMS: opening data.atm_phys
(PID.TID 0000.0001)  OPEN_COPY_DATA_FILE: opening file data.atm_phys
(PID.TID 0000.0001) // =======================================================
(PID.TID 0000.0001) // Parameter file "data.atm_phys"
(PID.TID 0000.0001) // =======================================================
(PID.TID 0000.0001) >#
(PID.TID 0000.0001) > &ATM_PHYS_PARM01
(PID.TID 0000.0001) >#atmPhys_addTendT=.FALSE.,
(PID.TID 0000.0001) >#atmPhys_addTendS=.FALSE.,
(PID.TID 0000.0001) >#atmPhys_addTendU=.FALSE.,
(PID.TID 0000.0001) >#atmPhys_addTendV=.FALSE.,
(PID.TID 0000.0001) > atmPhys_tauDampUV = 86400.,
(PID.TID 0000.0001) > atmPhys_dampUVfac = 20*0., 0.125, 0.25, 0.5, 1., 2., 4.,
(PID.TID 0000.0001) >#- initial SST file:
(PID.TID 0000.0001) > atmPhys_SSTFile='SST_APE_1.bin',
(PID.TID 0000.0001) >#- Q-flux file:
(PID.TID 0000.0001) >#atmPhys_QflxFile='Qflux_w90.bin',
(PID.TID 0000.0001) >#- update SST (default = False = keep the same SST):
(PID.TID 0000.0001) >#atmPhys_stepSST=.TRUE.,
(PID.TID 0000.0001) > /
(PID.TID 0000.0001) 
(PID.TID 0000.0001) ATM_PHYS_READPARMS: finished reading data.atm_phys
(PID.TID 0000.0001)  DIAGNOSTICS_READPARMS: opening data.diagnostics
(PID.TID 0000.0001)  OPEN_COPY_DATA_FILE: opening file data.diagnostics
(PID.TID 0000.0001) // =======================================================
(PID.TID 0000.0001) // Parameter file "data.diagnostics"
(PID.TID 0000.0001) // =======================================================
(PID.TID 0000.0001) ># Diagnostic Package Choices
(PID.TID 0000.0001) >#--------------------
(PID.TID 0000.0001) >#  dumpAtLast (logical): always write output at the end of simulation (default=F)
(PID.TID 0000.0001) >#  diag_mnc   (logical): write to NetCDF files (default=useMNC)
(PID.TID 0000.0001) >#--for each output-stream:
(PID.TID 0000.0001) >#  fileName(n) : prefix of the output file name (max 80c long) for outp.stream n
(PID.TID 0000.0001) >#  frequency(n):< 0 : write snap-shot output every |frequency| seconds
(PID.TID 0000.0001) >#               > 0 : write time-average output every frequency seconds
(PID.TID 0000.0001) >#  timePhase(n)     : write at time = timePhase + multiple of |frequency|
(PID.TID 0000.0001) >#    averagingFreq  : frequency (in s) for periodic averaging interval
(PID.TID 0000.0001) >#    averagingPhase : phase     (in s) for periodic averaging interval
(PID.TID 0000.0001) >#    repeatCycle    : number of averaging intervals in 1 cycle
(PID.TID 0000.0001) >#  levels(:,n) : list of levels to write to file (Notes: declared as REAL)
(PID.TID 0000.0001) >#                when this entry is missing, select all common levels of this list
(PID.TID 0000.0001) >#  fields(:,n) : list of selected diagnostics fields (8.c) in outp.stream n
(PID.TID 0000.0001) >#                (see "available_diagnostics.log" file for the full list of diags)
(PID.TID 0000.0001) >#  missing_value(n) : missing value for real-type fields in output file "n"
(PID.TID 0000.0001) >#  fileFlags(n)     : specific code (8c string) for output file "n"
(PID.TID 0000.0001) >#--------------------
(PID.TID 0000.0001) > &DIAGNOSTICS_LIST
(PID.TID 0000.0001) ># dumpAtLast   = .TRUE.,
(PID.TID 0000.0001) ># diag_mnc     = .FALSE.,
(PID.TID 0000.0001) >#--
(PID.TID 0000.0001) >  fields(1:16,1) = 'ETAN    ','ETANSQ  ','DETADT2 ','AtPhCAPE','AtPhCnvP',
(PID.TID 0000.0001) >                   'AtPhLscP','AtPhSens','AtPhEvap','AtPhTauX','AtPhTauY',
(PID.TID 0000.0001) >                   'AtPh_SST','AtPhInSR','AtPhOLR ',
(PID.TID 0000.0001) >                   'AtPhNSSR','AtPhDSLR','AtPhUSLR',
(PID.TID 0000.0001) >   fileName(1) = 'surfDiag',
(PID.TID 0000.0001) ># fileFlags(1) = 'D       ',
(PID.TID 0000.0001) ># frequency(1) = 311040000.,
(PID.TID 0000.0001) >  frequency(1) = 6220800000.,
(PID.TID 0000.0001) >   averagingFreq(1) = 2592000.,
(PID.TID 0000.0001) >     repeatCycle(1) = 12,
(PID.TID 0000.0001) ># frequency(1) = 432000.,
(PID.TID 0000.0001) >  fields(1:20,2) = 'UVEL    ','VVEL    ','WVEL    ','THETA   ','SALT    ',
(PID.TID 0000.0001) >                   'UVELSQ  ','VVELSQ  ','WVELSQ  ','THETASQ ','SALTSQ  ',
(PID.TID 0000.0001) >                   'UVELMASS','VVELMASS','UV_VEL_C','RELHUM  ',
(PID.TID 0000.0001) >                   'ADVx_TH ','ADVy_TH ','ADVr_TH ',
(PID.TID 0000.0001) >                   'ADVx_SLT','ADVy_SLT','ADVr_SLT',
(PID.TID 0000.0001) >#                  'AtPhdTdt','AtPhdQdt','AtPhdUdt','AtPhdVdt',
(PID.TID 0000.0001) >#                  'AtPhdtTg','AtPhdtQg','AtPhDifT','AtPhDifM',
(PID.TID 0000.0001) >#                  'SHAP_dU ','MoistCor',
(PID.TID 0000.0001) >   fileName(2) = 'dynDiag',
(PID.TID 0000.0001) ># frequency(2) = 311040000.,
(PID.TID 0000.0001) >  frequency(2) = 6220800000.,
(PID.TID 0000.0001) >   averagingFreq(2) = 7776000.,
(PID.TID 0000.0001) >  averagingPhase(2) =-2592000.,
(PID.TID 0000.0001) >     repeatCycle(2) = 4,
(PID.TID 0000.0001) ># frequency(2) = 432000.,
(PID.TID 0000.0001) > /
(PID.TID 0000.0001) >
(PID.TID 0000.0001) >#--------------------
(PID.TID 0000.0001) ># Parameter for Diagnostics of per level statistics:
(PID.TID 0000.0001) >#--------------------
(PID.TID 0000.0001) >#  diagSt_mnc (logical): write stat-diags to NetCDF files (default=diag_mnc)
(PID.TID 0000.0001) >#  diagSt_regMaskFile : file containing the region-mask to read-in
(PID.TID 0000.0001) >#  nSetRegMskFile   : number of region-mask sets within the region-mask file
(PID.TID 0000.0001) >#  set_regMask(i)   : region-mask set-index that identifies the region "i"
(PID.TID 0000.0001) >#  val_regMask(i)   : region "i" identifier value in the region mask
(PID.TID 0000.0001) >#--for each output-stream:
(PID.TID 0000.0001) >#  stat_fName(n) : prefix of the output file name (max 80c long) for outp.stream n
(PID.TID 0000.0001) >#  stat_freq(n):< 0 : write snap-shot output every |stat_freq| seconds
(PID.TID 0000.0001) >#               > 0 : write time-average output every stat_freq seconds
(PID.TID 0000.0001) >#  stat_phase(n)    : write at time = stat_phase + multiple of |stat_freq|
(PID.TID 0000.0001) >#  stat_region(:,n) : list of "regions" (default: 1 region only=global)
(PID.TID 0000.0001) >#  stat_fields(:,n) : list of selected diagnostics fields (8.c) in outp.stream n
(PID.TID 0000.0001) >#                (see "available_diagnostics.log" file for the full list of diags)
(PID.TID 0000.0001) >#--------------------
(PID.TID 0000.0001) > &DIAG_STATIS_PARMS
(PID.TID 0000.0001) > stat_fields(1:11,1) = 'ETAN    ','THETA   ','SALT    ','RELHUM  ',
(PID.TID 0000.0001) >                       'UE_VEL_C','VN_VEL_C','WVEL    ',
(PID.TID 0000.0001) >                       'AtPhdTdt','AtPhdQdt','AtPhdUdt','AtPhdVdt',
(PID.TID 0000.0001) >  stat_fName(1) = 'dynStDiag',
(PID.TID 0000.0001) >   stat_freq(1) = 864000.,
(PID.TID 0000.0001) >#  stat_freq(1) = 43200.,
(PID.TID 0000.0001) >  stat_phase(1) = 0.,
(PID.TID 0000.0001) > stat_fields(1:7,2)  = 'AtPhDifT','AtPhDifM','AtPhDisH',
(PID.TID 0000.0001) >                       'AtPhdtTg','AtPhdtQg','SHAP_dKE','MoistCor',
(PID.TID 0000.0001) >  stat_fName(2) = 'diffStDiag',
(PID.TID 0000.0001) >   stat_freq(2) = 864000.,
(PID.TID 0000.0001) >#  stat_freq(2) = 43200.,
(PID.TID 0000.0001) ># stat_phase(2) = 0.,
(PID.TID 0000.0001) > stat_fields(1:13,3) = 'AtPhSens','AtPhEvap','AtPhTauX','AtPhTauY',
(PID.TID 0000.0001) >                       'AtPhCAPE','AtPhCnvP','AtPhLscP',
(PID.TID 0000.0001) >                       'AtPh_SST','AtPhInSR','AtPhOLR ',
(PID.TID 0000.0001) >                       'AtPhNSSR','AtPhDSLR','AtPhUSLR',
(PID.TID 0000.0001) >  stat_fName(3) = 'flxStDiag',
(PID.TID 0000.0001) >   stat_freq(3) = 864000.,
(PID.TID 0000.0001) >#  stat_freq(3) = 43200.,
(PID.TID 0000.0001) >  stat_phase(3) = 0.,
(PID.TID 0000.0001) > /
(PID.TID 0000.0001) >
(PID.TID 0000.0001) 
(PID.TID 0000.0001) S/R DIAGNOSTICS_READPARMS, read namelist "diagnostics_list": start
(PID.TID 0000.0001) S/R DIAGNOSTICS_READPARMS, read namelist "diagnostics_list": OK
(PID.TID 0000.0001) S/R DIAGNOSTICS_READPARMS, read namelist "DIAG_STATIS_PARMS": start
(PID.TID 0000.0001) S/R DIAGNOSTICS_READPARMS, read namelist "DIAG_STATIS_PARMS": OK
(PID.TID 0000.0001)  DIAGNOSTICS_READPARMS: global parameter summary:
(PID.TID 0000.0001)  dumpAtLast = /* always write time-ave diags at the end */
(PID.TID 0000.0001)                   F
(PID.TID 0000.0001)     ;
(PID.TID 0000.0001)  diag_mnc =   /* write NetCDF output files */
(PID.TID 0000.0001)                   F
(PID.TID 0000.0001)     ;
(PID.TID 0000.0001)  useMissingValue = /* put MissingValue where mask = 0 */
(PID.TID 0000.0001)                   F
(PID.TID 0000.0001)     ;
(PID.TID 0000.0001)  diagCG_maxIters = /* max number of iters in diag_cg2d */
(PID.TID 0000.0001)                     200
(PID.TID 0000.0001)     ;
(PID.TID 0000.0001)  diagCG_resTarget = /* residual target for diag_cg2d */
(PID.TID 0000.0001)                 1.000000000000000E-07
(PID.TID 0000.0001)     ;
(PID.TID 0000.0001)  diagCG_pcOffDFac = /* preconditioner off-diagonal factor */
(PID.TID 0000.0001)                 9.611687812379854E-01
(PID.TID 0000.0001)     ;
(PID.TID 0000.0001) -----------------------------------------------------
(PID.TID 0000.0001)  DIAGNOSTICS_READPARMS: active diagnostics summary:
(PID.TID 0000.0001) -----------------------------------------------------
(PID.TID 0000.0001) Creating Output Stream: surfDiag
(PID.TID 0000.0001) Output Frequency: 6220800000.000000 ; Phase:           0.000000
(PID.TID 0000.0001)  Averaging Freq.:    2592000.000000 , Phase:           0.000000 , Cycle:  12
(PID.TID 0000.0001)  missing value: -9.990000000000E+02
(PID.TID 0000.0001)  Levels:    will be set later
(PID.TID 0000.0001)  Fields:    ETAN     ETANSQ   DETADT2  AtPhCAPE AtPhCnvP AtPhLscP AtPhSens AtPhEvap AtPhTauX AtPhTauY
(PID.TID 0000.0001)  Fields:    AtPh_SST AtPhInSR AtPhOLR  AtPhNSSR AtPhDSLR AtPhUSLR
(PID.TID 0000.0001) Creating Output Stream: dynDiag
(PID.TID 0000.0001) Output Frequency: 6220800000.000000 ; Phase:           0.000000
(PID.TID 0000.0001)  Averaging Freq.:    7776000.000000 , Phase:    -2592000.000000 , Cycle:   4
(PID.TID 0000.0001)  missing value: -9.990000000000E+02
(PID.TID 0000.0001)  Levels:    will be set later
(PID.TID 0000.0001)  Fields:    UVEL     VVEL     WVEL     THETA    SALT     UVELSQ   VVELSQ   WVELSQ   THETASQ  SALTSQ
(PID.TID 0000.0001)  Fields:    UVELMASS VVELMASS UV_VEL_C RELHUM   ADVx_TH  ADVy_TH  ADVr_TH  ADVx_SLT ADVy_SLT ADVr_SLT
(PID.TID 0000.0001) -----------------------------------------------------
(PID.TID 0000.0001)  DIAGNOSTICS_READPARMS: statistics diags. summary:
(PID.TID 0000.0001) Creating Stats. Output Stream: dynStDiag
(PID.TID 0000.0001) Output Frequency:     864000.000000 ; Phase:           0.000000
(PID.TID 0000.0001)  Regions:   0
(PID.TID 0000.0001)  Fields:    ETAN     THETA    SALT     RELHUM   UE_VEL_C VN_VEL_C WVEL     AtPhdTdt AtPhdQdt AtPhdUdt
(PID.TID 0000.0001)  Fields:    AtPhdVdt
(PID.TID 0000.0001) Creating Stats. Output Stream: diffStDiag
(PID.TID 0000.0001) Output Frequency:     864000.000000 ; Phase:           0.000000
(PID.TID 0000.0001)  Regions:   0
(PID.TID 0000.0001)  Fields:    AtPhDifT AtPhDifM AtPhDisH AtPhdtTg AtPhdtQg SHAP_dKE MoistCor
(PID.TID 0000.0001) Creating Stats. Output Stream: flxStDiag
(PID.TID 0000.0001) Output Frequency:     864000.000000 ; Phase:           0.000000
(PID.TID 0000.0001)  Regions:   0
(PID.TID 0000.0001)  Fields:    AtPhSens AtPhEvap AtPhTauX AtPhTauY AtPhCAPE AtPhCnvP AtPhLscP AtPh_SST AtPhInSR AtPhOLR
(PID.TID 0000.0001)  Fields:    AtPhNSSR AtPhDSLR AtPhUSLR
(PID.TID 0000.0001) -----------------------------------------------------
(PID.TID 0000.0001) 
(PID.TID 0000.0001)  CPL_READPARMS: opening data.cpl
(PID.TID 0000.0001)  OPEN_COPY_DATA_FILE: opening file data.cpl
(PID.TID 0000.0001) // =======================================================
(PID.TID 0000.0001) // Parameter file "data.cpl"
(PID.TID 0000.0001) // =======================================================
(PID.TID 0000.0001) ># Coupling package parameters, ATM component:
(PID.TID 0000.0001) >#     cpl_oldPickup  :: restart from an old pickup (= until ckpt 59h)
(PID.TID 0000.0001) >#     useImportMxlD  :: True => use Imported Mix.Layer Detph from coupler
(PID.TID 0000.0001) >#     useImportSST   :: True => use the Imported SST from coupler
(PID.TID 0000.0001) >#     useImportSSS   :: True => use the Imported SSS from coupler
(PID.TID 0000.0001) >#     useImportVsq   :: True => use the Imported Surf. velocity^2
(PID.TID 0000.0001) >#     cpl_atmSendFrq :: Frequency^-1 for sending data to coupler (s)
(PID.TID 0000.0001) >#     maxNumberPrint :: max number of printed Exp/Imp messages
(PID.TID 0000.0001) > &CPL_ATM_PARAM
(PID.TID 0000.0001) ># cpl_oldPickup=.TRUE.,
(PID.TID 0000.0001) >  useImportMxlD=.FALSE.,
(PID.TID 0000.0001) ># useImportSST =.FALSE.,
(PID.TID 0000.0001) >  useImportSSS =.FALSE.,
(PID.TID 0000.0001) >  useImportVsq =.FALSE.,
(PID.TID 0000.0001) ># useImportFlxCO2=.FALSE.,
(PID.TID 0000.0001) >  cpl_atmSendFrq=2880.,
(PID.TID 0000.0001) > /
(PID.TID 0000.0001) 
(PID.TID 0000.0001)  CPL_READPARMS: finished reading data.cpl
(PID.TID 0000.0001) 
(PID.TID 0000.0001) // ===================================
(PID.TID 0000.0001) // Coupling package parameters :
(PID.TID 0000.0001) // ===================================
(PID.TID 0000.0001) cpl_oldPickup = /* restart from old pickup on/off flag */
(PID.TID 0000.0001)                   F
(PID.TID 0000.0001)     ;
(PID.TID 0000.0001) useImportMxlD = /* use Imported MxL. Depth from Coupler flag */
(PID.TID 0000.0001)                   F
(PID.TID 0000.0001)     ;
(PID.TID 0000.0001) useImportSST = /* use Imported SST from Coupler on/off flag */
(PID.TID 0000.0001)                   T
(PID.TID 0000.0001)     ;
(PID.TID 0000.0001) useImportSSS = /* use Imported SSS from Coupler on/off flag */
(PID.TID 0000.0001)                   F
(PID.TID 0000.0001)     ;
(PID.TID 0000.0001) useImportVsq = /* use Imported surf.Vel^2 from Coupler flag */
(PID.TID 0000.0001)                   F
(PID.TID 0000.0001)     ;
(PID.TID 0000.0001) useImportFlxCO2 = /* use Imported air-sea CO2 flux from Coupler flag */
(PID.TID 0000.0001)                   F
(PID.TID 0000.0001)     ;
(PID.TID 0000.0001) cpl_atmSendFrq = /* Frequency^o-1 for sending data to Coupler (s) */
(PID.TID 0000.0001)                 2.880000000000000E+03
(PID.TID 0000.0001)     ;
(PID.TID 0000.0001) cplSendFrq_iter = /* send data to coupler every "cplSendFrq" iter */
(PID.TID 0000.0001)                       8
(PID.TID 0000.0001)     ;
(PID.TID 0000.0001) maxNumberPrint = /* max number of printed Exp/Imp messages */
(PID.TID 0000.0001)                     100
(PID.TID 0000.0001)     ;
(PID.TID 0000.0001) SET_PARMS: done
(PID.TID 0000.0001) Enter INI_VERTICAL_GRID: setInterFDr=    T ; setCenterDr=    F
(PID.TID 0000.0001) tile:   1 ; Read from file dxC1_dXYa.face001.bin
(PID.TID 0000.0001)   => xC yC dxF dyF rA xG yG dxV dyU rAz dxC dyC rAw rAs dxG dyG AngleCS AngleSN
(PID.TID 0000.0001) tile:   2 ; Read from file dxC1_dXYa.face002.bin
(PID.TID 0000.0001)   => xC yC dxF dyF rA xG yG dxV dyU rAz dxC dyC rAw rAs dxG dyG AngleCS AngleSN
(PID.TID 0000.0001) tile:   3 ; Read from file dxC1_dXYa.face003.bin
(PID.TID 0000.0001)   => xC yC dxF dyF rA xG yG dxV dyU rAz dxC dyC rAw rAs dxG dyG AngleCS AngleSN
(PID.TID 0000.0001) tile:   4 ; Read from file dxC1_dXYa.face004.bin
(PID.TID 0000.0001)   => xC yC dxF dyF rA xG yG dxV dyU rAz dxC dyC rAw rAs dxG dyG AngleCS AngleSN
(PID.TID 0000.0001) tile:   5 ; Read from file dxC1_dXYa.face005.bin
(PID.TID 0000.0001)   => xC yC dxF dyF rA xG yG dxV dyU rAz dxC dyC rAw rAs dxG dyG AngleCS AngleSN
(PID.TID 0000.0001) tile:   6 ; Read from file dxC1_dXYa.face006.bin
(PID.TID 0000.0001)   => xC yC dxF dyF rA xG yG dxV dyU rAz dxC dyC rAw rAs dxG dyG AngleCS AngleSN
(PID.TID 0000.0001) %MON XC_max                       =   1.7854351589505E+02
(PID.TID 0000.0001) %MON XC_min                       =  -1.7854351589505E+02
(PID.TID 0000.0001) %MON XC_mean                      =  -4.6999441375798E-15
(PID.TID 0000.0001) %MON XC_sd                        =   1.0355545336287E+02
(PID.TID 0000.0001) %MON XG_max                       =   1.8000000000000E+02
(PID.TID 0000.0001) %MON XG_min                       =  -1.7708797161002E+02
(PID.TID 0000.0001) %MON XG_mean                      =   1.8603515625000E+00
(PID.TID 0000.0001) %MON XG_sd                        =   1.0357130300504E+02
(PID.TID 0000.0001) %MON DXC_max                      =   3.2375185836900E+05
(PID.TID 0000.0001) %MON DXC_min                      =   1.1353730006923E+05
(PID.TID 0000.0001) %MON DXC_mean                     =   2.8606102525036E+05
(PID.TID 0000.0001) %MON DXC_sd                       =   3.4020997630307E+04
(PID.TID 0000.0001) %MON DXF_max                      =   3.2369947500827E+05
(PID.TID 0000.0001) %MON DXF_min                      =   1.2020820513318E+05
(PID.TID 0000.0001) %MON DXF_mean                     =   2.8605437324820E+05
(PID.TID 0000.0001) %MON DXF_sd                       =   3.4050524252539E+04
(PID.TID 0000.0001) %MON DXG_max                      =   3.2375195872773E+05
(PID.TID 0000.0001) %MON DXG_min                      =   1.0098378008791E+05
(PID.TID 0000.0001) %MON DXG_mean                     =   2.8603818508931E+05
(PID.TID 0000.0001) %MON DXG_sd                       =   3.4140406908005E+04
(PID.TID 0000.0001) %MON DXV_max                      =   3.2380418162750E+05
(PID.TID 0000.0001) %MON DXV_min                      =   8.0152299824136E+04
(PID.TID 0000.0001) %MON DXV_mean                     =   2.8603970633619E+05
(PID.TID 0000.0001) %MON DXV_sd                       =   3.4145142117723E+04
(PID.TID 0000.0001) %MON YC_max                       =   8.7940663871962E+01
(PID.TID 0000.0001) %MON YC_min                       =  -8.7940663871962E+01
(PID.TID 0000.0001) %MON YC_mean                      =   0.0000000000000E+00
(PID.TID 0000.0001) %MON YC_sd                        =   3.8676242969072E+01
(PID.TID 0000.0001) %MON YG_max                       =   9.0000000000000E+01
(PID.TID 0000.0001) %MON YG_min                       =  -9.0000000000000E+01
(PID.TID 0000.0001) %MON YG_mean                      =  -1.1842378929335E-15
(PID.TID 0000.0001) %MON YG_sd                        =   3.8676895860710E+01
(PID.TID 0000.0001) %MON DYC_max                      =   3.2375185836900E+05
(PID.TID 0000.0001) %MON DYC_min                      =   1.1353730006923E+05
(PID.TID 0000.0001) %MON DYC_mean                     =   2.8606102525036E+05
(PID.TID 0000.0001) %MON DYC_sd                       =   3.4020997630307E+04
(PID.TID 0000.0001) %MON DYF_max                      =   3.2369947500827E+05
(PID.TID 0000.0001) %MON DYF_min                      =   1.2020820513318E+05
(PID.TID 0000.0001) %MON DYF_mean                     =   2.8605437324820E+05
(PID.TID 0000.0001) %MON DYF_sd                       =   3.4050524252539E+04
(PID.TID 0000.0001) %MON DYG_max                      =   3.2375195872773E+05
(PID.TID 0000.0001) %MON DYG_min                      =   1.0098378008791E+05
(PID.TID 0000.0001) %MON DYG_mean                     =   2.8603818508931E+05
(PID.TID 0000.0001) %MON DYG_sd                       =   3.4140406908005E+04
(PID.TID 0000.0001) %MON DYU_max                      =   3.2380418162750E+05
(PID.TID 0000.0001) %MON DYU_min                      =   8.0152299824136E+04
(PID.TID 0000.0001) %MON DYU_mean                     =   2.8603970633619E+05
(PID.TID 0000.0001) %MON DYU_sd                       =   3.4145142117723E+04
(PID.TID 0000.0001) %MON RA_max                       =   1.0474757731659E+11
(PID.TID 0000.0001) %MON RA_min                       =   1.5497867056722E+10
(PID.TID 0000.0001) %MON RA_mean                      =   8.2985711332657E+10
(PID.TID 0000.0001) %MON RA_sd                        =   1.7448591913787E+10
(PID.TID 0000.0001) %MON RAW_max                      =   1.0481529828871E+11
(PID.TID 0000.0001) %MON RAW_min                      =   1.1465425741966E+10
(PID.TID 0000.0001) %MON RAW_mean                     =   8.2985711332657E+10
(PID.TID 0000.0001) %MON RAW_sd                       =   1.7503889570793E+10
(PID.TID 0000.0001) %MON RAS_max                      =   1.0481529828871E+11
(PID.TID 0000.0001) %MON RAS_min                      =   1.1465425741966E+10
(PID.TID 0000.0001) %MON RAS_mean                     =   8.2985711332657E+10
(PID.TID 0000.0001) %MON RAS_sd                       =   1.7503889570793E+10
(PID.TID 0000.0001) %MON RAZ_max                      =   1.0484349334619E+11
(PID.TID 0000.0001) %MON RAZ_min                      =   8.8317900612505E+09
(PID.TID 0000.0001) %MON RAZ_mean                     =   8.2992246709235E+10
(PID.TID 0000.0001) %MON RAZ_sd                       =   1.7482297311044E+10
(PID.TID 0000.0001) %MON AngleCS_max                  =   9.9999994756719E-01
(PID.TID 0000.0001) %MON AngleCS_min                  =  -9.9968286884824E-01
(PID.TID 0000.0001) %MON AngleCS_mean                 =   3.3078922539000E-01
(PID.TID 0000.0001) %MON AngleCS_sd                   =   6.2496278958502E-01
(PID.TID 0000.0001) %MON AngleSN_max                  =   9.9968286884824E-01
(PID.TID 0000.0001) %MON AngleSN_min                  =  -9.9999994756719E-01
(PID.TID 0000.0001) %MON AngleSN_mean                 =  -3.3078922539000E-01
(PID.TID 0000.0001) %MON AngleSN_sd                   =   6.2496278958502E-01
(PID.TID 0000.0001) 
(PID.TID 0000.0001) SET_REF_STATE: PhiRef/g [m] at level Center (integer)
(PID.TID 0000.0001)                      and at level Interface (half-int.) :
(PID.TID 0000.0001)  K=  0.5  ;  r=       100000.0  ;  phiRef/g=        0.000
(PID.TID 0000.0001)  K=  1.0  ;  r=        99250.0  ;  phiRef/g=       65.000
(PID.TID 0000.0001)  K=  1.5  ;  r=        98500.0  ;  phiRef/g=      144.206
(PID.TID 0000.0001)  K=  2.0  ;  r=        97439.0  ;  phiRef/g=      223.413
(PID.TID 0000.0001)  K=  2.5  ;  r=        96378.0  ;  phiRef/g=      337.236
(PID.TID 0000.0001)  K=  3.0  ;  r=        94878.0  ;  phiRef/g=      451.060
(PID.TID 0000.0001)  K=  3.5  ;  r=        93378.0  ;  phiRef/g=      615.802
(PID.TID 0000.0001)  K=  4.0  ;  r=        91257.0  ;  phiRef/g=      780.544
(PID.TID 0000.0001)  K=  4.5  ;  r=        89136.0  ;  phiRef/g=     1021.698
(PID.TID 0000.0001)  K=  5.0  ;  r=        86136.0  ;  phiRef/g=     1262.852
(PID.TID 0000.0001)  K=  5.5  ;  r=        83136.0  ;  phiRef/g=     1604.545
(PID.TID 0000.0001)  K=  6.0  ;  r=        79236.0  ;  phiRef/g=     1946.238
(PID.TID 0000.0001)  K=  6.5  ;  r=        75336.0  ;  phiRef/g=     2394.973
(PID.TID 0000.0001)  K=  7.0  ;  r=        70786.0  ;  phiRef/g=     2843.709
(PID.TID 0000.0001)  K=  7.5  ;  r=        66236.0  ;  phiRef/g=     3381.201
(PID.TID 0000.0001)  K=  8.0  ;  r=        61536.0  ;  phiRef/g=     3918.694
(PID.TID 0000.0001)  K=  8.5  ;  r=        56836.0  ;  phiRef/g=     4523.627
(PID.TID 0000.0001)  K=  9.0  ;  r=        52196.0  ;  phiRef/g=     5128.560
(PID.TID 0000.0001)  K=  9.5  ;  r=        47556.0  ;  phiRef/g=     5777.201
(PID.TID 0000.0001)  K= 10.0  ;  r=        43356.0  ;  phiRef/g=     6425.843
(PID.TID 0000.0001)  K= 10.5  ;  r=        39156.0  ;  phiRef/g=     7072.216
(PID.TID 0000.0001)  K= 11.0  ;  r=        35666.0  ;  phiRef/g=     7718.589
(PID.TID 0000.0001)  K= 11.5  ;  r=        32176.0  ;  phiRef/g=     8336.533
(PID.TID 0000.0001)  K= 12.0  ;  r=        29276.0  ;  phiRef/g=     8954.478
(PID.TID 0000.0001)  K= 12.5  ;  r=        26376.0  ;  phiRef/g=     9546.297
(PID.TID 0000.0001)  K= 13.0  ;  r=        23966.0  ;  phiRef/g=    10138.117
(PID.TID 0000.0001)  K= 13.5  ;  r=        21556.0  ;  phiRef/g=    10706.062
(PID.TID 0000.0001)  K= 14.0  ;  r=        19554.0  ;  phiRef/g=    11274.007
(PID.TID 0000.0001)  K= 14.5  ;  r=        17552.0  ;  phiRef/g=    11820.513
(PID.TID 0000.0001)  K= 15.0  ;  r=        15888.0  ;  phiRef/g=    12367.018
(PID.TID 0000.0001)  K= 15.5  ;  r=        14224.0  ;  phiRef/g=    12894.813
(PID.TID 0000.0001)  K= 16.0  ;  r=        12841.0  ;  phiRef/g=    13422.607
(PID.TID 0000.0001)  K= 16.5  ;  r=        11458.0  ;  phiRef/g=    13934.405
(PID.TID 0000.0001)  K= 17.0  ;  r=        10309.0  ;  phiRef/g=    14446.203
(PID.TID 0000.0001)  K= 17.5  ;  r=         9160.0  ;  phiRef/g=    14945.188
(PID.TID 0000.0001)  K= 18.0  ;  r=         8205.0  ;  phiRef/g=    15444.173
(PID.TID 0000.0001)  K= 18.5  ;  r=         7250.0  ;  phiRef/g=    15934.021
(PID.TID 0000.0001)  K= 19.0  ;  r=         6457.0  ;  phiRef/g=    16423.869
(PID.TID 0000.0001)  K= 19.5  ;  r=         5664.0  ;  phiRef/g=    16909.194
(PID.TID 0000.0001)  K= 20.0  ;  r=         5005.0  ;  phiRef/g=    17394.518
(PID.TID 0000.0001)  K= 20.5  ;  r=         4346.0  ;  phiRef/g=    17881.933
(PID.TID 0000.0001)  K= 21.0  ;  r=         3798.0  ;  phiRef/g=    18369.347
(PID.TID 0000.0001)  K= 21.5  ;  r=         3250.0  ;  phiRef/g=    18867.727
(PID.TID 0000.0001)  K= 22.0  ;  r=         2795.0  ;  phiRef/g=    19366.107
(PID.TID 0000.0001)  K= 22.5  ;  r=         2340.0  ;  phiRef/g=    19889.510
(PID.TID 0000.0001)  K= 23.0  ;  r=         1962.0  ;  phiRef/g=    20412.912
(PID.TID 0000.0001)  K= 23.5  ;  r=         1584.0  ;  phiRef/g=    20987.805
(PID.TID 0000.0001)  K= 24.0  ;  r=         1270.0  ;  phiRef/g=    21562.697
(PID.TID 0000.0001)  K= 24.5  ;  r=          956.0  ;  phiRef/g=    22250.139
(PID.TID 0000.0001)  K= 25.0  ;  r=          695.0  ;  phiRef/g=    22937.580
(PID.TID 0000.0001)  K= 25.5  ;  r=          434.0  ;  phiRef/g=    23972.294
(PID.TID 0000.0001)  K= 26.0  ;  r=          217.0  ;  phiRef/g=    25007.007
(PID.TID 0000.0001)  K= 26.5  ;  r=            0.0  ;  phiRef/g=    30251.966
(PID.TID 0000.0001) // =======================================================
(PID.TID 0000.0001) // Field Model R_low (ini_masks_etc)
(PID.TID 0000.0001) // CMIN =          1.000000000000000E+32
(PID.TID 0000.0001) // CMAX =         -1.000000000000000E+32
(PID.TID 0000.0001) // CINT =          0.000000000000000E+00
(PID.TID 0000.0001) // SYMBOLS (CMIN->CMAX): -abcdefghijklmnopqrstuvwxyz+
(PID.TID 0000.0001) //                  0.0: .
(PID.TID 0000.0001) // RANGE I (Lo:Hi:Step):(    -3:   196:     1)
(PID.TID 0000.0001) // RANGE J (Lo:Hi:Step):(    36:    -3:    -1)
(PID.TID 0000.0001) // RANGE K (Lo:Hi:Step):(   1:   1:   1)
(PID.TID 0000.0001) // =======================================================
(PID.TID 0000.0001) // =======================================================
(PID.TID 0000.0001) // END OF FIELD                                          =
(PID.TID 0000.0001) // =======================================================
(PID.TID 0000.0001) 
(PID.TID 0000.0001) // =======================================================
(PID.TID 0000.0001) // Field Model Ro_surf (ini_masks_etc)
(PID.TID 0000.0001) // CMIN =          1.000000000000000E+05
(PID.TID 0000.0001) // CMAX =          1.000000000000000E+05
(PID.TID 0000.0001) // CINT =          0.000000000000000E+00
(PID.TID 0000.0001) // SYMBOLS (CMIN->CMAX): -abcdefghijklmnopqrstuvwxyz+
(PID.TID 0000.0001) //                  0.0: .
(PID.TID 0000.0001) // RANGE I (Lo:Hi:Step):(    -3:   196:     1)
(PID.TID 0000.0001) // RANGE J (Lo:Hi:Step):(    36:    -3:    -1)
(PID.TID 0000.0001) // RANGE K (Lo:Hi:Step):(   1:   1:   1)
(PID.TID 0000.0001) // =======================================================
(PID.TID 0000.0001) // =======================================================
(PID.TID 0000.0001) // END OF FIELD                                          =
(PID.TID 0000.0001) // =======================================================
(PID.TID 0000.0001) 
(PID.TID 0000.0001) // =======================================================
(PID.TID 0000.0001) // Field hFacC at iteration          0
(PID.TID 0000.0001) // CMIN =          1.000000000000000E+00
(PID.TID 0000.0001) // CMAX =          1.000000000000000E+00
(PID.TID 0000.0001) // CINT =          0.000000000000000E+00
(PID.TID 0000.0001) // SYMBOLS (CMIN->CMAX): -abcdefghijklmnopqrstuvwxyz+
(PID.TID 0000.0001) //                  0.0: .
(PID.TID 0000.0001) // RANGE I (Lo:Hi:Step):(    -3:   196:     1)
(PID.TID 0000.0001) // RANGE J (Lo:Hi:Step):(    36:    -3:    -1)
(PID.TID 0000.0001) // RANGE K (Lo:Hi:Step):(   1:   1:   1)
(PID.TID 0000.0001) // =======================================================
(PID.TID 0000.0001) // =======================================================
(PID.TID 0000.0001) // END OF FIELD                                          =
(PID.TID 0000.0001) // =======================================================
(PID.TID 0000.0001) 
(PID.TID 0000.0001) // =======================================================
(PID.TID 0000.0001) // Field hFacW at iteration          0
(PID.TID 0000.0001) // CMIN =          1.000000000000000E+00
(PID.TID 0000.0001) // CMAX =          1.000000000000000E+00
(PID.TID 0000.0001) // CINT =          0.000000000000000E+00
(PID.TID 0000.0001) // SYMBOLS (CMIN->CMAX): -abcdefghijklmnopqrstuvwxyz+
(PID.TID 0000.0001) //                  0.0: .
(PID.TID 0000.0001) // RANGE I (Lo:Hi:Step):(    -3:   196:     1)
(PID.TID 0000.0001) // RANGE J (Lo:Hi:Step):(    36:    -3:    -1)
(PID.TID 0000.0001) // RANGE K (Lo:Hi:Step):(   1:   1:   1)
(PID.TID 0000.0001) // =======================================================
(PID.TID 0000.0001) // =======================================================
(PID.TID 0000.0001) // END OF FIELD                                          =
(PID.TID 0000.0001) // =======================================================
(PID.TID 0000.0001) 
(PID.TID 0000.0001) // =======================================================
(PID.TID 0000.0001) // Field hFacS at iteration          0
(PID.TID 0000.0001) // CMIN =          1.000000000000000E+00
(PID.TID 0000.0001) // CMAX =          1.000000000000000E+00
(PID.TID 0000.0001) // CINT =          0.000000000000000E+00
(PID.TID 0000.0001) // SYMBOLS (CMIN->CMAX): -abcdefghijklmnopqrstuvwxyz+
(PID.TID 0000.0001) //                  0.0: .
(PID.TID 0000.0001) // RANGE I (Lo:Hi:Step):(    -3:   196:     1)
(PID.TID 0000.0001) // RANGE J (Lo:Hi:Step):(    36:    -3:    -1)
(PID.TID 0000.0001) // RANGE K (Lo:Hi:Step):(   1:   1:   1)
(PID.TID 0000.0001) // =======================================================
(PID.TID 0000.0001) // =======================================================
(PID.TID 0000.0001) // END OF FIELD                                          =
(PID.TID 0000.0001) // =======================================================
(PID.TID 0000.0001) 
(PID.TID 0000.0001) GAD_INIT_FIXED: GAD_OlMinSize=  2  0  2
(PID.TID 0000.0001) 
(PID.TID 0000.0001) // ===================================
(PID.TID 0000.0001) // GAD parameters :
(PID.TID 0000.0001) // ===================================
(PID.TID 0000.0001) tempAdvScheme =   /* Temp. Horiz.Advection scheme selector */
(PID.TID 0000.0001)                       2
(PID.TID 0000.0001)     ;
(PID.TID 0000.0001) tempVertAdvScheme =   /* Temp. Vert. Advection scheme selector */
(PID.TID 0000.0001)                       2
(PID.TID 0000.0001)     ;
(PID.TID 0000.0001) tempMultiDimAdvec =   /* use Muti-Dim Advec method for Temp */
(PID.TID 0000.0001)                   F
(PID.TID 0000.0001)     ;
(PID.TID 0000.0001) tempSOM_Advection = /* use 2nd Order Moment Advection for Temp */
(PID.TID 0000.0001)                   F
(PID.TID 0000.0001)     ;
(PID.TID 0000.0001) AdamsBashforthGt = /* apply Adams-Bashforth extrapolation on Gt */
(PID.TID 0000.0001)                   T
(PID.TID 0000.0001)     ;
(PID.TID 0000.0001) AdamsBashforth_T = /* apply Adams-Bashforth extrapolation on Temp */
(PID.TID 0000.0001)                   F
(PID.TID 0000.0001)     ;
(PID.TID 0000.0001) saltAdvScheme =   /* Salt. Horiz.advection scheme selector */
(PID.TID 0000.0001)                      77
(PID.TID 0000.0001)     ;
(PID.TID 0000.0001) saltVertAdvScheme =   /* Salt. Vert. Advection scheme selector */
(PID.TID 0000.0001)                      77
(PID.TID 0000.0001)     ;
(PID.TID 0000.0001) saltMultiDimAdvec =   /* use Muti-Dim Advec method for Salt */
(PID.TID 0000.0001)                   T
(PID.TID 0000.0001)     ;
(PID.TID 0000.0001) saltSOM_Advection = /* use 2nd Order Moment Advection for Salt */
(PID.TID 0000.0001)                   F
(PID.TID 0000.0001)     ;
(PID.TID 0000.0001) AdamsBashforthGs = /* apply Adams-Bashforth extrapolation on Gs */
(PID.TID 0000.0001)                   F
(PID.TID 0000.0001)     ;
(PID.TID 0000.0001) AdamsBashforth_S = /* apply Adams-Bashforth extrapolation on Salt */
(PID.TID 0000.0001)                   F
(PID.TID 0000.0001)     ;
(PID.TID 0000.0001) // ===================================
(PID.TID 0000.0001) ATM_PHYS_INIT_FIXED: opening data.atm_gray
(PID.TID 0000.0001)  OPEN_COPY_DATA_FILE: opening file data.atm_gray
(PID.TID 0000.0001) // =======================================================
(PID.TID 0000.0001) // Parameter file "data.atm_gray"
(PID.TID 0000.0001) // =======================================================
(PID.TID 0000.0001) >
(PID.TID 0000.0001) > &atmosphere_nml
(PID.TID 0000.0001) >    turb = .TRUE.,
(PID.TID 0000.0001) >    ldry_convection = .false.,
(PID.TID 0000.0001) >    lwet_convection = .TRUE.,
(PID.TID 0000.0001) >    do_virtual = .false.,
(PID.TID 0000.0001) >    two_stream = .true.,
(PID.TID 0000.0001) >    mixed_layer_bc = .false.,
(PID.TID 0000.0001) >    roughness_heat = 0.05,
(PID.TID 0000.0001) >    roughness_moist = 0.05,
(PID.TID 0000.0001) >    roughness_mom = 0.05,
(PID.TID 0000.0001) > /
(PID.TID 0000.0001) >
(PID.TID 0000.0001) > &radiation_nml
(PID.TID 0000.0001) >  select_incSW  = 1,
(PID.TID 0000.0001) >  solar_constant= 1365.,
(PID.TID 0000.0001) ># yearLength=
(PID.TID 0000.0001) ># yearPhase =
(PID.TID 0000.0001) ># obliquity =
(PID.TID 0000.0001) >  del_sol=1.,
(PID.TID 0000.0001) ># ir_tau_eq=
(PID.TID 0000.0001) ># ir_tau_pole=
(PID.TID 0000.0001) >  atm_abs= 0.22,
(PID.TID 0000.0001) ># value that Ruth is using as default:
(PID.TID 0000.0001) ># atm_abs= 0.2486,
(PID.TID 0000.0001) ># sw_diff=
(PID.TID 0000.0001) ># linear_tau=
(PID.TID 0000.0001) ># del_sw=
(PID.TID 0000.0001) >  albedo_value=0.38,
(PID.TID 0000.0001) ># window=
(PID.TID 0000.0001) ># wv_exponent=
(PID.TID 0000.0001) ># solar_exponent=
(PID.TID 0000.0001) >  wv_exponent=0.,
(PID.TID 0000.0001) > /
(PID.TID 0000.0001) >
(PID.TID 0000.0001) > &lscale_cond_nml
(PID.TID 0000.0001) ># hc =
(PID.TID 0000.0001) ># do_evap=
(PID.TID 0000.0001) > /
(PID.TID 0000.0001) >
(PID.TID 0000.0001) > &dargan_bettsmiller_nml
(PID.TID 0000.0001) >#-- default:
(PID.TID 0000.0001) >#   tau_bm = 7200.,
(PID.TID 0000.0001) >#   rhbm   = 0.8,
(PID.TID 0000.0001) >#   do_virtual   = .FALSE.,
(PID.TID 0000.0001) >#   do_shallower = .FALSE.,
(PID.TID 0000.0001) >#   do_changeqref= .FALSE.,
(PID.TID 0000.0001) >#   do_envsat    = .FALSE.,
(PID.TID 0000.0001) >#   do_taucape   = .FALSE.,
(PID.TID 0000.0001) >#     capetaubm  = 900.,
(PID.TID 0000.0001) >#     tau_min    = 2400.,
(PID.TID 0000.0001) >#   do_bm_shift  = .FALSE.,
(PID.TID 0000.0001) >#-- POG choice:
(PID.TID 0000.0001) >#  rhbm = 0.7,
(PID.TID 0000.0001) >   do_virtual= .TRUE.,
(PID.TID 0000.0001) >   do_shallower= .TRUE.,
(PID.TID 0000.0001) > /
(PID.TID 0000.0001) >
(PID.TID 0000.0001) > &surface_flux_nml
(PID.TID 0000.0001) > /
(PID.TID 0000.0001) >
(PID.TID 0000.0001) > &vert_turb_driver_nml
(PID.TID 0000.0001) >#  do_shallow_conv, do_mellor_yamada,
(PID.TID 0000.0001) >#  gust_scheme, constant_gust, use_tau,
(PID.TID 0000.0001) >#  do_molecular_diffusion
(PID.TID 0000.0001) >  do_mellor_yamada=.FALSE.,
(PID.TID 0000.0001) > /
(PID.TID 0000.0001) >
(PID.TID 0000.0001) > &diffusivity_nml
(PID.TID 0000.0001) >#  fixed_depth, depth_0, frac_inner,
(PID.TID 0000.0001) >#  rich_crit_pbl, entr_ratio, parcel_buoy,
(PID.TID 0000.0001) >#  znom, free_atm_diff, free_atm_skyhi_diff,
(PID.TID 0000.0001) >#  pbl_mcm, rich_crit_diff, mix_len, rich_prandtl,
(PID.TID 0000.0001) >#  background_m, background_t, ampns, ampns_max,
(PID.TID 0000.0001) >#  do_virtual_non_mcm
(PID.TID 0000.0001) > /
(PID.TID 0000.0001) >
(PID.TID 0000.0001) > &monin_obukhov_nml
(PID.TID 0000.0001) > /
(PID.TID 0000.0001) >
(PID.TID 0000.0001) > &my25_turb_nml
(PID.TID 0000.0001) > /
(PID.TID 0000.0001) >
(PID.TID 0000.0001) > &shallow_conv_nml
(PID.TID 0000.0001) > /
(PID.TID 0000.0001) >
(PID.TID 0000.0001) > &mixed_layer_nml
(PID.TID 0000.0001) ># evaporation, qflux_amp, depth, qflux_width
(PID.TID 0000.0001) >  depth=5000.,
(PID.TID 0000.0001) > /
(PID.TID 0000.0001) 
(PID.TID 0000.0001) ATM_PHYS_INIT_FIXED: finished reading data.atm_gray
(PID.TID 0000.0001) MIXED_LAYER_INIT: opening data.atm_gray
(PID.TID 0000.0001)  OPEN_COPY_DATA_FILE: opening file data.atm_gray
(PID.TID 0000.0001) // =======================================================
(PID.TID 0000.0001) // Parameter file "data.atm_gray"
(PID.TID 0000.0001) // =======================================================
(PID.TID 0000.0001) >
(PID.TID 0000.0001) > &atmosphere_nml
(PID.TID 0000.0001) >    turb = .TRUE.,
(PID.TID 0000.0001) >    ldry_convection = .false.,
(PID.TID 0000.0001) >    lwet_convection = .TRUE.,
(PID.TID 0000.0001) >    do_virtual = .false.,
(PID.TID 0000.0001) >    two_stream = .true.,
(PID.TID 0000.0001) >    mixed_layer_bc = .false.,
(PID.TID 0000.0001) >    roughness_heat = 0.05,
(PID.TID 0000.0001) >    roughness_moist = 0.05,
(PID.TID 0000.0001) >    roughness_mom = 0.05,
(PID.TID 0000.0001) > /
(PID.TID 0000.0001) >
(PID.TID 0000.0001) > &radiation_nml
(PID.TID 0000.0001) >  select_incSW  = 1,
(PID.TID 0000.0001) >  solar_constant= 1365.,
(PID.TID 0000.0001) ># yearLength=
(PID.TID 0000.0001) ># yearPhase =
(PID.TID 0000.0001) ># obliquity =
(PID.TID 0000.0001) >  del_sol=1.,
(PID.TID 0000.0001) ># ir_tau_eq=
(PID.TID 0000.0001) ># ir_tau_pole=
(PID.TID 0000.0001) >  atm_abs= 0.22,
(PID.TID 0000.0001) ># value that Ruth is using as default:
(PID.TID 0000.0001) ># atm_abs= 0.2486,
(PID.TID 0000.0001) ># sw_diff=
(PID.TID 0000.0001) ># linear_tau=
(PID.TID 0000.0001) ># del_sw=
(PID.TID 0000.0001) >  albedo_value=0.38,
(PID.TID 0000.0001) ># window=
(PID.TID 0000.0001) ># wv_exponent=
(PID.TID 0000.0001) ># solar_exponent=
(PID.TID 0000.0001) >  wv_exponent=0.,
(PID.TID 0000.0001) > /
(PID.TID 0000.0001) >
(PID.TID 0000.0001) > &lscale_cond_nml
(PID.TID 0000.0001) ># hc =
(PID.TID 0000.0001) ># do_evap=
(PID.TID 0000.0001) > /
(PID.TID 0000.0001) >
(PID.TID 0000.0001) > &dargan_bettsmiller_nml
(PID.TID 0000.0001) >#-- default:
(PID.TID 0000.0001) >#   tau_bm = 7200.,
(PID.TID 0000.0001) >#   rhbm   = 0.8,
(PID.TID 0000.0001) >#   do_virtual   = .FALSE.,
(PID.TID 0000.0001) >#   do_shallower = .FALSE.,
(PID.TID 0000.0001) >#   do_changeqref= .FALSE.,
(PID.TID 0000.0001) >#   do_envsat    = .FALSE.,
(PID.TID 0000.0001) >#   do_taucape   = .FALSE.,
(PID.TID 0000.0001) >#     capetaubm  = 900.,
(PID.TID 0000.0001) >#     tau_min    = 2400.,
(PID.TID 0000.0001) >#   do_bm_shift  = .FALSE.,
(PID.TID 0000.0001) >#-- POG choice:
(PID.TID 0000.0001) >#  rhbm = 0.7,
(PID.TID 0000.0001) >   do_virtual= .TRUE.,
(PID.TID 0000.0001) >   do_shallower= .TRUE.,
(PID.TID 0000.0001) > /
(PID.TID 0000.0001) >
(PID.TID 0000.0001) > &surface_flux_nml
(PID.TID 0000.0001) > /
(PID.TID 0000.0001) >
(PID.TID 0000.0001) > &vert_turb_driver_nml
(PID.TID 0000.0001) >#  do_shallow_conv, do_mellor_yamada,
(PID.TID 0000.0001) >#  gust_scheme, constant_gust, use_tau,
(PID.TID 0000.0001) >#  do_molecular_diffusion
(PID.TID 0000.0001) >  do_mellor_yamada=.FALSE.,
(PID.TID 0000.0001) > /
(PID.TID 0000.0001) >
(PID.TID 0000.0001) > &diffusivity_nml
(PID.TID 0000.0001) >#  fixed_depth, depth_0, frac_inner,
(PID.TID 0000.0001) >#  rich_crit_pbl, entr_ratio, parcel_buoy,
(PID.TID 0000.0001) >#  znom, free_atm_diff, free_atm_skyhi_diff,
(PID.TID 0000.0001) >#  pbl_mcm, rich_crit_diff, mix_len, rich_prandtl,
(PID.TID 0000.0001) >#  background_m, background_t, ampns, ampns_max,
(PID.TID 0000.0001) >#  do_virtual_non_mcm
(PID.TID 0000.0001) > /
(PID.TID 0000.0001) >
(PID.TID 0000.0001) > &monin_obukhov_nml
(PID.TID 0000.0001) > /
(PID.TID 0000.0001) >
(PID.TID 0000.0001) > &my25_turb_nml
(PID.TID 0000.0001) > /
(PID.TID 0000.0001) >
(PID.TID 0000.0001) > &shallow_conv_nml
(PID.TID 0000.0001) > /
(PID.TID 0000.0001) >
(PID.TID 0000.0001) > &mixed_layer_nml
(PID.TID 0000.0001) ># evaporation, qflux_amp, depth, qflux_width
(PID.TID 0000.0001) >  depth=5000.,
(PID.TID 0000.0001) > /
(PID.TID 0000.0001) 
(PID.TID 0000.0001) MIXED_LAYER_INIT: finished reading data.atm_gray
(PID.TID 0000.0001) LSCALE_COND_INIT: opening data.atm_gray
(PID.TID 0000.0001)  OPEN_COPY_DATA_FILE: opening file data.atm_gray
(PID.TID 0000.0001) // =======================================================
(PID.TID 0000.0001) // Parameter file "data.atm_gray"
(PID.TID 0000.0001) // =======================================================
(PID.TID 0000.0001) >
(PID.TID 0000.0001) > &atmosphere_nml
(PID.TID 0000.0001) >    turb = .TRUE.,
(PID.TID 0000.0001) >    ldry_convection = .false.,
(PID.TID 0000.0001) >    lwet_convection = .TRUE.,
(PID.TID 0000.0001) >    do_virtual = .false.,
(PID.TID 0000.0001) >    two_stream = .true.,
(PID.TID 0000.0001) >    mixed_layer_bc = .false.,
(PID.TID 0000.0001) >    roughness_heat = 0.05,
(PID.TID 0000.0001) >    roughness_moist = 0.05,
(PID.TID 0000.0001) >    roughness_mom = 0.05,
(PID.TID 0000.0001) > /
(PID.TID 0000.0001) >
(PID.TID 0000.0001) > &radiation_nml
(PID.TID 0000.0001) >  select_incSW  = 1,
(PID.TID 0000.0001) >  solar_constant= 1365.,
(PID.TID 0000.0001) ># yearLength=
(PID.TID 0000.0001) ># yearPhase =
(PID.TID 0000.0001) ># obliquity =
(PID.TID 0000.0001) >  del_sol=1.,
(PID.TID 0000.0001) ># ir_tau_eq=
(PID.TID 0000.0001) ># ir_tau_pole=
(PID.TID 0000.0001) >  atm_abs= 0.22,
(PID.TID 0000.0001) ># value that Ruth is using as default:
(PID.TID 0000.0001) ># atm_abs= 0.2486,
(PID.TID 0000.0001) ># sw_diff=
(PID.TID 0000.0001) ># linear_tau=
(PID.TID 0000.0001) ># del_sw=
(PID.TID 0000.0001) >  albedo_value=0.38,
(PID.TID 0000.0001) ># window=
(PID.TID 0000.0001) ># wv_exponent=
(PID.TID 0000.0001) ># solar_exponent=
(PID.TID 0000.0001) >  wv_exponent=0.,
(PID.TID 0000.0001) > /
(PID.TID 0000.0001) >
(PID.TID 0000.0001) > &lscale_cond_nml
(PID.TID 0000.0001) ># hc =
(PID.TID 0000.0001) ># do_evap=
(PID.TID 0000.0001) > /
(PID.TID 0000.0001) >
(PID.TID 0000.0001) > &dargan_bettsmiller_nml
(PID.TID 0000.0001) >#-- default:
(PID.TID 0000.0001) >#   tau_bm = 7200.,
(PID.TID 0000.0001) >#   rhbm   = 0.8,
(PID.TID 0000.0001) >#   do_virtual   = .FALSE.,
(PID.TID 0000.0001) >#   do_shallower = .FALSE.,
(PID.TID 0000.0001) >#   do_changeqref= .FALSE.,
(PID.TID 0000.0001) >#   do_envsat    = .FALSE.,
(PID.TID 0000.0001) >#   do_taucape   = .FALSE.,
(PID.TID 0000.0001) >#     capetaubm  = 900.,
(PID.TID 0000.0001) >#     tau_min    = 2400.,
(PID.TID 0000.0001) >#   do_bm_shift  = .FALSE.,
(PID.TID 0000.0001) >#-- POG choice:
(PID.TID 0000.0001) >#  rhbm = 0.7,
(PID.TID 0000.0001) >   do_virtual= .TRUE.,
(PID.TID 0000.0001) >   do_shallower= .TRUE.,
(PID.TID 0000.0001) > /
(PID.TID 0000.0001) >
(PID.TID 0000.0001) > &surface_flux_nml
(PID.TID 0000.0001) > /
(PID.TID 0000.0001) >
(PID.TID 0000.0001) > &vert_turb_driver_nml
(PID.TID 0000.0001) >#  do_shallow_conv, do_mellor_yamada,
(PID.TID 0000.0001) >#  gust_scheme, constant_gust, use_tau,
(PID.TID 0000.0001) >#  do_molecular_diffusion
(PID.TID 0000.0001) >  do_mellor_yamada=.FALSE.,
(PID.TID 0000.0001) > /
(PID.TID 0000.0001) >
(PID.TID 0000.0001) > &diffusivity_nml
(PID.TID 0000.0001) >#  fixed_depth, depth_0, frac_inner,
(PID.TID 0000.0001) >#  rich_crit_pbl, entr_ratio, parcel_buoy,
(PID.TID 0000.0001) >#  znom, free_atm_diff, free_atm_skyhi_diff,
(PID.TID 0000.0001) >#  pbl_mcm, rich_crit_diff, mix_len, rich_prandtl,
(PID.TID 0000.0001) >#  background_m, background_t, ampns, ampns_max,
(PID.TID 0000.0001) >#  do_virtual_non_mcm
(PID.TID 0000.0001) > /
(PID.TID 0000.0001) >
(PID.TID 0000.0001) > &monin_obukhov_nml
(PID.TID 0000.0001) > /
(PID.TID 0000.0001) >
(PID.TID 0000.0001) > &my25_turb_nml
(PID.TID 0000.0001) > /
(PID.TID 0000.0001) >
(PID.TID 0000.0001) > &shallow_conv_nml
(PID.TID 0000.0001) > /
(PID.TID 0000.0001) >
(PID.TID 0000.0001) > &mixed_layer_nml
(PID.TID 0000.0001) ># evaporation, qflux_amp, depth, qflux_width
(PID.TID 0000.0001) >  depth=5000.,
(PID.TID 0000.0001) > /
(PID.TID 0000.0001) 
(PID.TID 0000.0001) LSCALE_COND_INIT: finished reading data.atm_gray
(PID.TID 0000.0001) DARGAN_BETTSMILLER_init: opening data.atm_gray
(PID.TID 0000.0001)  OPEN_COPY_DATA_FILE: opening file data.atm_gray
(PID.TID 0000.0001) // =======================================================
(PID.TID 0000.0001) // Parameter file "data.atm_gray"
(PID.TID 0000.0001) // =======================================================
(PID.TID 0000.0001) >
(PID.TID 0000.0001) > &atmosphere_nml
(PID.TID 0000.0001) >    turb = .TRUE.,
(PID.TID 0000.0001) >    ldry_convection = .false.,
(PID.TID 0000.0001) >    lwet_convection = .TRUE.,
(PID.TID 0000.0001) >    do_virtual = .false.,
(PID.TID 0000.0001) >    two_stream = .true.,
(PID.TID 0000.0001) >    mixed_layer_bc = .false.,
(PID.TID 0000.0001) >    roughness_heat = 0.05,
(PID.TID 0000.0001) >    roughness_moist = 0.05,
(PID.TID 0000.0001) >    roughness_mom = 0.05,
(PID.TID 0000.0001) > /
(PID.TID 0000.0001) >
(PID.TID 0000.0001) > &radiation_nml
(PID.TID 0000.0001) >  select_incSW  = 1,
(PID.TID 0000.0001) >  solar_constant= 1365.,
(PID.TID 0000.0001) ># yearLength=
(PID.TID 0000.0001) ># yearPhase =
(PID.TID 0000.0001) ># obliquity =
(PID.TID 0000.0001) >  del_sol=1.,
(PID.TID 0000.0001) ># ir_tau_eq=
(PID.TID 0000.0001) ># ir_tau_pole=
(PID.TID 0000.0001) >  atm_abs= 0.22,
(PID.TID 0000.0001) ># value that Ruth is using as default:
(PID.TID 0000.0001) ># atm_abs= 0.2486,
(PID.TID 0000.0001) ># sw_diff=
(PID.TID 0000.0001) ># linear_tau=
(PID.TID 0000.0001) ># del_sw=
(PID.TID 0000.0001) >  albedo_value=0.38,
(PID.TID 0000.0001) ># window=
(PID.TID 0000.0001) ># wv_exponent=
(PID.TID 0000.0001) ># solar_exponent=
(PID.TID 0000.0001) >  wv_exponent=0.,
(PID.TID 0000.0001) > /
(PID.TID 0000.0001) >
(PID.TID 0000.0001) > &lscale_cond_nml
(PID.TID 0000.0001) ># hc =
(PID.TID 0000.0001) ># do_evap=
(PID.TID 0000.0001) > /
(PID.TID 0000.0001) >
(PID.TID 0000.0001) > &dargan_bettsmiller_nml
(PID.TID 0000.0001) >#-- default:
(PID.TID 0000.0001) >#   tau_bm = 7200.,
(PID.TID 0000.0001) >#   rhbm   = 0.8,
(PID.TID 0000.0001) >#   do_virtual   = .FALSE.,
(PID.TID 0000.0001) >#   do_shallower = .FALSE.,
(PID.TID 0000.0001) >#   do_changeqref= .FALSE.,
(PID.TID 0000.0001) >#   do_envsat    = .FALSE.,
(PID.TID 0000.0001) >#   do_taucape   = .FALSE.,
(PID.TID 0000.0001) >#     capetaubm  = 900.,
(PID.TID 0000.0001) >#     tau_min    = 2400.,
(PID.TID 0000.0001) >#   do_bm_shift  = .FALSE.,
(PID.TID 0000.0001) >#-- POG choice:
(PID.TID 0000.0001) >#  rhbm = 0.7,
(PID.TID 0000.0001) >   do_virtual= .TRUE.,
(PID.TID 0000.0001) >   do_shallower= .TRUE.,
(PID.TID 0000.0001) > /
(PID.TID 0000.0001) >
(PID.TID 0000.0001) > &surface_flux_nml
(PID.TID 0000.0001) > /
(PID.TID 0000.0001) >
(PID.TID 0000.0001) > &vert_turb_driver_nml
(PID.TID 0000.0001) >#  do_shallow_conv, do_mellor_yamada,
(PID.TID 0000.0001) >#  gust_scheme, constant_gust, use_tau,
(PID.TID 0000.0001) >#  do_molecular_diffusion
(PID.TID 0000.0001) >  do_mellor_yamada=.FALSE.,
(PID.TID 0000.0001) > /
(PID.TID 0000.0001) >
(PID.TID 0000.0001) > &diffusivity_nml
(PID.TID 0000.0001) >#  fixed_depth, depth_0, frac_inner,
(PID.TID 0000.0001) >#  rich_crit_pbl, entr_ratio, parcel_buoy,
(PID.TID 0000.0001) >#  znom, free_atm_diff, free_atm_skyhi_diff,
(PID.TID 0000.0001) >#  pbl_mcm, rich_crit_diff, mix_len, rich_prandtl,
(PID.TID 0000.0001) >#  background_m, background_t, ampns, ampns_max,
(PID.TID 0000.0001) >#  do_virtual_non_mcm
(PID.TID 0000.0001) > /
(PID.TID 0000.0001) >
(PID.TID 0000.0001) > &monin_obukhov_nml
(PID.TID 0000.0001) > /
(PID.TID 0000.0001) >
(PID.TID 0000.0001) > &my25_turb_nml
(PID.TID 0000.0001) > /
(PID.TID 0000.0001) >
(PID.TID 0000.0001) > &shallow_conv_nml
(PID.TID 0000.0001) > /
(PID.TID 0000.0001) >
(PID.TID 0000.0001) > &mixed_layer_nml
(PID.TID 0000.0001) ># evaporation, qflux_amp, depth, qflux_width
(PID.TID 0000.0001) >  depth=5000.,
(PID.TID 0000.0001) > /
(PID.TID 0000.0001) 
(PID.TID 0000.0001) DARGAB_BETTSMILLER_INIT: finished reading data.atm_gray
(PID.TID 0000.0001) RADIATION_INIT: opening data.atm_gray
(PID.TID 0000.0001)  OPEN_COPY_DATA_FILE: opening file data.atm_gray
(PID.TID 0000.0001) // =======================================================
(PID.TID 0000.0001) // Parameter file "data.atm_gray"
(PID.TID 0000.0001) // =======================================================
(PID.TID 0000.0001) >
(PID.TID 0000.0001) > &atmosphere_nml
(PID.TID 0000.0001) >    turb = .TRUE.,
(PID.TID 0000.0001) >    ldry_convection = .false.,
(PID.TID 0000.0001) >    lwet_convection = .TRUE.,
(PID.TID 0000.0001) >    do_virtual = .false.,
(PID.TID 0000.0001) >    two_stream = .true.,
(PID.TID 0000.0001) >    mixed_layer_bc = .false.,
(PID.TID 0000.0001) >    roughness_heat = 0.05,
(PID.TID 0000.0001) >    roughness_moist = 0.05,
(PID.TID 0000.0001) >    roughness_mom = 0.05,
(PID.TID 0000.0001) > /
(PID.TID 0000.0001) >
(PID.TID 0000.0001) > &radiation_nml
(PID.TID 0000.0001) >  select_incSW  = 1,
(PID.TID 0000.0001) >  solar_constant= 1365.,
(PID.TID 0000.0001) ># yearLength=
(PID.TID 0000.0001) ># yearPhase =
(PID.TID 0000.0001) ># obliquity =
(PID.TID 0000.0001) >  del_sol=1.,
(PID.TID 0000.0001) ># ir_tau_eq=
(PID.TID 0000.0001) ># ir_tau_pole=
(PID.TID 0000.0001) >  atm_abs= 0.22,
(PID.TID 0000.0001) ># value that Ruth is using as default:
(PID.TID 0000.0001) ># atm_abs= 0.2486,
(PID.TID 0000.0001) ># sw_diff=
(PID.TID 0000.0001) ># linear_tau=
(PID.TID 0000.0001) ># del_sw=
(PID.TID 0000.0001) >  albedo_value=0.38,
(PID.TID 0000.0001) ># window=
(PID.TID 0000.0001) ># wv_exponent=
(PID.TID 0000.0001) ># solar_exponent=
(PID.TID 0000.0001) >  wv_exponent=0.,
(PID.TID 0000.0001) > /
(PID.TID 0000.0001) >
(PID.TID 0000.0001) > &lscale_cond_nml
(PID.TID 0000.0001) ># hc =
(PID.TID 0000.0001) ># do_evap=
(PID.TID 0000.0001) > /
(PID.TID 0000.0001) >
(PID.TID 0000.0001) > &dargan_bettsmiller_nml
(PID.TID 0000.0001) >#-- default:
(PID.TID 0000.0001) >#   tau_bm = 7200.,
(PID.TID 0000.0001) >#   rhbm   = 0.8,
(PID.TID 0000.0001) >#   do_virtual   = .FALSE.,
(PID.TID 0000.0001) >#   do_shallower = .FALSE.,
(PID.TID 0000.0001) >#   do_changeqref= .FALSE.,
(PID.TID 0000.0001) >#   do_envsat    = .FALSE.,
(PID.TID 0000.0001) >#   do_taucape   = .FALSE.,
(PID.TID 0000.0001) >#     capetaubm  = 900.,
(PID.TID 0000.0001) >#     tau_min    = 2400.,
(PID.TID 0000.0001) >#   do_bm_shift  = .FALSE.,
(PID.TID 0000.0001) >#-- POG choice:
(PID.TID 0000.0001) >#  rhbm = 0.7,
(PID.TID 0000.0001) >   do_virtual= .TRUE.,
(PID.TID 0000.0001) >   do_shallower= .TRUE.,
(PID.TID 0000.0001) > /
(PID.TID 0000.0001) >
(PID.TID 0000.0001) > &surface_flux_nml
(PID.TID 0000.0001) > /
(PID.TID 0000.0001) >
(PID.TID 0000.0001) > &vert_turb_driver_nml
(PID.TID 0000.0001) >#  do_shallow_conv, do_mellor_yamada,
(PID.TID 0000.0001) >#  gust_scheme, constant_gust, use_tau,
(PID.TID 0000.0001) >#  do_molecular_diffusion
(PID.TID 0000.0001) >  do_mellor_yamada=.FALSE.,
(PID.TID 0000.0001) > /
(PID.TID 0000.0001) >
(PID.TID 0000.0001) > &diffusivity_nml
(PID.TID 0000.0001) >#  fixed_depth, depth_0, frac_inner,
(PID.TID 0000.0001) >#  rich_crit_pbl, entr_ratio, parcel_buoy,
(PID.TID 0000.0001) >#  znom, free_atm_diff, free_atm_skyhi_diff,
(PID.TID 0000.0001) >#  pbl_mcm, rich_crit_diff, mix_len, rich_prandtl,
(PID.TID 0000.0001) >#  background_m, background_t, ampns, ampns_max,
(PID.TID 0000.0001) >#  do_virtual_non_mcm
(PID.TID 0000.0001) > /
(PID.TID 0000.0001) >
(PID.TID 0000.0001) > &monin_obukhov_nml
(PID.TID 0000.0001) > /
(PID.TID 0000.0001) >
(PID.TID 0000.0001) > &my25_turb_nml
(PID.TID 0000.0001) > /
(PID.TID 0000.0001) >
(PID.TID 0000.0001) > &shallow_conv_nml
(PID.TID 0000.0001) > /
(PID.TID 0000.0001) >
(PID.TID 0000.0001) > &mixed_layer_nml
(PID.TID 0000.0001) ># evaporation, qflux_amp, depth, qflux_width
(PID.TID 0000.0001) >  depth=5000.,
(PID.TID 0000.0001) > /
(PID.TID 0000.0001) 
(PID.TID 0000.0001) RADIATION_INIT: finished reading data.atm_gray
(PID.TID 0000.0001) VERT_TURB_DRIVER_INIT: opening data.atm_gray
(PID.TID 0000.0001)  OPEN_COPY_DATA_FILE: opening file data.atm_gray
(PID.TID 0000.0001) // =======================================================
(PID.TID 0000.0001) // Parameter file "data.atm_gray"
(PID.TID 0000.0001) // =======================================================
(PID.TID 0000.0001) >
(PID.TID 0000.0001) > &atmosphere_nml
(PID.TID 0000.0001) >    turb = .TRUE.,
(PID.TID 0000.0001) >    ldry_convection = .false.,
(PID.TID 0000.0001) >    lwet_convection = .TRUE.,
(PID.TID 0000.0001) >    do_virtual = .false.,
(PID.TID 0000.0001) >    two_stream = .true.,
(PID.TID 0000.0001) >    mixed_layer_bc = .false.,
(PID.TID 0000.0001) >    roughness_heat = 0.05,
(PID.TID 0000.0001) >    roughness_moist = 0.05,
(PID.TID 0000.0001) >    roughness_mom = 0.05,
(PID.TID 0000.0001) > /
(PID.TID 0000.0001) >
(PID.TID 0000.0001) > &radiation_nml
(PID.TID 0000.0001) >  select_incSW  = 1,
(PID.TID 0000.0001) >  solar_constant= 1365.,
(PID.TID 0000.0001) ># yearLength=
(PID.TID 0000.0001) ># yearPhase =
(PID.TID 0000.0001) ># obliquity =
(PID.TID 0000.0001) >  del_sol=1.,
(PID.TID 0000.0001) ># ir_tau_eq=
(PID.TID 0000.0001) ># ir_tau_pole=
(PID.TID 0000.0001) >  atm_abs= 0.22,
(PID.TID 0000.0001) ># value that Ruth is using as default:
(PID.TID 0000.0001) ># atm_abs= 0.2486,
(PID.TID 0000.0001) ># sw_diff=
(PID.TID 0000.0001) ># linear_tau=
(PID.TID 0000.0001) ># del_sw=
(PID.TID 0000.0001) >  albedo_value=0.38,
(PID.TID 0000.0001) ># window=
(PID.TID 0000.0001) ># wv_exponent=
(PID.TID 0000.0001) ># solar_exponent=
(PID.TID 0000.0001) >  wv_exponent=0.,
(PID.TID 0000.0001) > /
(PID.TID 0000.0001) >
(PID.TID 0000.0001) > &lscale_cond_nml
(PID.TID 0000.0001) ># hc =
(PID.TID 0000.0001) ># do_evap=
(PID.TID 0000.0001) > /
(PID.TID 0000.0001) >
(PID.TID 0000.0001) > &dargan_bettsmiller_nml
(PID.TID 0000.0001) >#-- default:
(PID.TID 0000.0001) >#   tau_bm = 7200.,
(PID.TID 0000.0001) >#   rhbm   = 0.8,
(PID.TID 0000.0001) >#   do_virtual   = .FALSE.,
(PID.TID 0000.0001) >#   do_shallower = .FALSE.,
(PID.TID 0000.0001) >#   do_changeqref= .FALSE.,
(PID.TID 0000.0001) >#   do_envsat    = .FALSE.,
(PID.TID 0000.0001) >#   do_taucape   = .FALSE.,
(PID.TID 0000.0001) >#     capetaubm  = 900.,
(PID.TID 0000.0001) >#     tau_min    = 2400.,
(PID.TID 0000.0001) >#   do_bm_shift  = .FALSE.,
(PID.TID 0000.0001) >#-- POG choice:
(PID.TID 0000.0001) >#  rhbm = 0.7,
(PID.TID 0000.0001) >   do_virtual= .TRUE.,
(PID.TID 0000.0001) >   do_shallower= .TRUE.,
(PID.TID 0000.0001) > /
(PID.TID 0000.0001) >
(PID.TID 0000.0001) > &surface_flux_nml
(PID.TID 0000.0001) > /
(PID.TID 0000.0001) >
(PID.TID 0000.0001) > &vert_turb_driver_nml
(PID.TID 0000.0001) >#  do_shallow_conv, do_mellor_yamada,
(PID.TID 0000.0001) >#  gust_scheme, constant_gust, use_tau,
(PID.TID 0000.0001) >#  do_molecular_diffusion
(PID.TID 0000.0001) >  do_mellor_yamada=.FALSE.,
(PID.TID 0000.0001) > /
(PID.TID 0000.0001) >
(PID.TID 0000.0001) > &diffusivity_nml
(PID.TID 0000.0001) >#  fixed_depth, depth_0, frac_inner,
(PID.TID 0000.0001) >#  rich_crit_pbl, entr_ratio, parcel_buoy,
(PID.TID 0000.0001) >#  znom, free_atm_diff, free_atm_skyhi_diff,
(PID.TID 0000.0001) >#  pbl_mcm, rich_crit_diff, mix_len, rich_prandtl,
(PID.TID 0000.0001) >#  background_m, background_t, ampns, ampns_max,
(PID.TID 0000.0001) >#  do_virtual_non_mcm
(PID.TID 0000.0001) > /
(PID.TID 0000.0001) >
(PID.TID 0000.0001) > &monin_obukhov_nml
(PID.TID 0000.0001) > /
(PID.TID 0000.0001) >
(PID.TID 0000.0001) > &my25_turb_nml
(PID.TID 0000.0001) > /
(PID.TID 0000.0001) >
(PID.TID 0000.0001) > &shallow_conv_nml
(PID.TID 0000.0001) > /
(PID.TID 0000.0001) >
(PID.TID 0000.0001) > &mixed_layer_nml
(PID.TID 0000.0001) ># evaporation, qflux_amp, depth, qflux_width
(PID.TID 0000.0001) >  depth=5000.,
(PID.TID 0000.0001) > /
(PID.TID 0000.0001) 
(PID.TID 0000.0001) VERT_TURB_DRIVER_INIT: finished reading data.atm_gray
(PID.TID 0000.0001) ------------------------------------------------------------
(PID.TID 0000.0001) DIAGNOSTICS_SET_LEVELS: done
(PID.TID 0000.0001)  Total Nb of available Diagnostics: ndiagt=   221
(PID.TID 0000.0001)  write list of available Diagnostics to file: available_diagnostics.log
(PID.TID 0000.0001) SETDIAG: Allocate  1 x 12 Levels for Diagnostic #    23 ETAN
(PID.TID 0000.0001) SETDIAG: Allocate  1 x 12 Levels for Diagnostic #    24 ETANSQ
(PID.TID 0000.0001) SETDIAG: Allocate  1 x 12 Levels for Diagnostic #    25 DETADT2
(PID.TID 0000.0001) SETDIAG: Allocate  1 x 12 Levels for Diagnostic #   211 AtPhCAPE
(PID.TID 0000.0001) SETDIAG: Allocate  1 x 12 Levels for Diagnostic #   198 AtPhCnvP
(PID.TID 0000.0001) SETDIAG: Allocate  1 x 12 Levels for Diagnostic #   199 AtPhLscP
(PID.TID 0000.0001) SETDIAG: Allocate  1 x 12 Levels for Diagnostic #   207 AtPhSens
(PID.TID 0000.0001) SETDIAG: Allocate  1 x 12 Levels for Diagnostic #   208 AtPhEvap
(PID.TID 0000.0001) SETDIAG: Allocate  1 x 12 Levels for Diagnostic #   209 AtPhTauX
(PID.TID 0000.0001) SETDIAG: Allocate  1 x 12 Levels for Diagnostic #   210 AtPhTauY
(PID.TID 0000.0001) SETDIAG: Allocate  1 x 12 Levels for Diagnostic #   191 AtPh_SST
(PID.TID 0000.0001) SETDIAG: Allocate  1 x 12 Levels for Diagnostic #   200 AtPhInSR
(PID.TID 0000.0001) SETDIAG: Allocate  1 x 12 Levels for Diagnostic #   202 AtPhOLR
(PID.TID 0000.0001) SETDIAG: Allocate  1 x 12 Levels for Diagnostic #   204 AtPhNSSR
(PID.TID 0000.0001) SETDIAG: Allocate  1 x 12 Levels for Diagnostic #   205 AtPhDSLR
(PID.TID 0000.0001) SETDIAG: Allocate  1 x 12 Levels for Diagnostic #   206 AtPhUSLR
(PID.TID 0000.0001) SETDIAG: Allocate 26 x  4 Levels for Diagnostic #    29 UVEL
(PID.TID 0000.0001) SETDIAG: Allocate 26 x  4 Levels for Diagnostic #    30 VVEL
(PID.TID 0000.0001) SETDIAG: Allocate 26 x  4 Levels for Diagnostic #    31 WVEL
(PID.TID 0000.0001) SETDIAG: Allocate 26 x  4 Levels for Diagnostic #    26 THETA
(PID.TID 0000.0001) SETDIAG: Allocate 26 x  4 Levels for Diagnostic #    27 SALT
(PID.TID 0000.0001) SETDIAG: Allocate 26 x  4 Levels for Diagnostic #    34 UVELSQ
(PID.TID 0000.0001) SETDIAG: Allocate 26 x  4 Levels for Diagnostic #    35 VVELSQ
(PID.TID 0000.0001) SETDIAG: Allocate 26 x  4 Levels for Diagnostic #    36 WVELSQ
(PID.TID 0000.0001) SETDIAG: Allocate 26 x  4 Levels for Diagnostic #    32 THETASQ
(PID.TID 0000.0001) SETDIAG: Allocate 26 x  4 Levels for Diagnostic #    33 SALTSQ
(PID.TID 0000.0001) SETDIAG: Allocate 26 x  4 Levels for Diagnostic #    43 UVELMASS
(PID.TID 0000.0001) SETDIAG: Allocate 26 x  4 Levels for Diagnostic #    44 VVELMASS
(PID.TID 0000.0001) SETDIAG: Allocate 26 x  4 Levels for Diagnostic #    39 UV_VEL_C
(PID.TID 0000.0001) SETDIAG: Allocate 26 x  4 Levels for Diagnostic #    28 RELHUM
(PID.TID 0000.0001) SETDIAG: Allocate 26 x  4 Levels for Diagnostic #   109 ADVx_TH
(PID.TID 0000.0001) SETDIAG: Allocate 26 x  4 Levels for Diagnostic #   110 ADVy_TH
(PID.TID 0000.0001) SETDIAG: Allocate 26 x  4 Levels for Diagnostic #   108 ADVr_TH
(PID.TID 0000.0001) SETDIAG: Allocate 26 x  4 Levels for Diagnostic #   116 ADVx_SLT
(PID.TID 0000.0001) SETDIAG: Allocate 26 x  4 Levels for Diagnostic #   117 ADVy_SLT
(PID.TID 0000.0001) SETDIAG: Allocate 26 x  4 Levels for Diagnostic #   115 ADVr_SLT
(PID.TID 0000.0001)   space allocated for all diagnostics:    2272 levels
(PID.TID 0000.0001)   set mate pointer for diag #    29  UVEL     , Parms: UUR     MR , mate:    30
(PID.TID 0000.0001)   set mate pointer for diag #    30  VVEL     , Parms: VVR     MR , mate:    29
(PID.TID 0000.0001)   set mate pointer for diag #    34  UVELSQ   , Parms: UURP    MR , mate:    35
(PID.TID 0000.0001)   set mate pointer for diag #    35  VVELSQ   , Parms: VVRP    MR , mate:    34
(PID.TID 0000.0001)   set mate pointer for diag #    43  UVELMASS , Parms: UUr     MR , mate:    44
(PID.TID 0000.0001)   set mate pointer for diag #    44  VVELMASS , Parms: VVr     MR , mate:    43
(PID.TID 0000.0001)   set mate pointer for diag #    39  UV_VEL_C , Parms: UMR     MR , mate:    39
(PID.TID 0000.0001)   set mate pointer for diag #   109  ADVx_TH  , Parms: UU      MR , mate:   110
(PID.TID 0000.0001)   set mate pointer for diag #   110  ADVy_TH  , Parms: VV      MR , mate:   109
(PID.TID 0000.0001)   set mate pointer for diag #   116  ADVx_SLT , Parms: UU      MR , mate:   117
(PID.TID 0000.0001)   set mate pointer for diag #   117  ADVy_SLT , Parms: VV      MR , mate:   116
(PID.TID 0000.0001) DIAGNOSTICS_SET_POINTERS: Set levels for Outp.Stream: surfDiag
(PID.TID 0000.0001)  Levels:       1.
(PID.TID 0000.0001) DIAGNOSTICS_SET_POINTERS: Set levels for Outp.Stream: dynDiag
(PID.TID 0000.0001)  Levels:       1.   2.   3.   4.   5.   6.   7.   8.   9.  10.  11.  12.  13.  14.  15.  16.  17.  18.  19.  20.
(PID.TID 0000.0001)  Levels:      21.  22.  23.  24.  25.  26.
(PID.TID 0000.0001) DIAGNOSTICS_SET_POINTERS: done
(PID.TID 0000.0001) ------------------------------------------------------------
(PID.TID 0000.0001) DIAGSTATS_SET_REGIONS: define no region
(PID.TID 0000.0001) ------------------------------------------------------------
(PID.TID 0000.0001) SETDIAG: Allocate  1 Levels for Stats-Diag #    23 ETAN
(PID.TID 0000.0001) SETDIAG: Allocate 26 Levels for Stats-Diag #    26 THETA
(PID.TID 0000.0001) SETDIAG: Allocate 26 Levels for Stats-Diag #    27 SALT
(PID.TID 0000.0001) SETDIAG: Allocate 26 Levels for Stats-Diag #    28 RELHUM
(PID.TID 0000.0001) SETDIAG: Allocate 26 Levels for Stats-Diag #    37 UE_VEL_C
(PID.TID 0000.0001) SETDIAG: Allocate 26 Levels for Stats-Diag #    38 VN_VEL_C
(PID.TID 0000.0001) SETDIAG: Allocate 26 Levels for Stats-Diag #    31 WVEL
(PID.TID 0000.0001) SETDIAG: Allocate 26 Levels for Stats-Diag #   192 AtPhdTdt
(PID.TID 0000.0001) SETDIAG: Allocate 26 Levels for Stats-Diag #   193 AtPhdQdt
(PID.TID 0000.0001) SETDIAG: Allocate 26 Levels for Stats-Diag #   194 AtPhdUdt
(PID.TID 0000.0001) SETDIAG: Allocate 26 Levels for Stats-Diag #   195 AtPhdVdt
(PID.TID 0000.0001) SETDIAG: Allocate 26 Levels for Stats-Diag #   196 AtPhDifT
(PID.TID 0000.0001) SETDIAG: Allocate 26 Levels for Stats-Diag #   197 AtPhDifM
(PID.TID 0000.0001) SETDIAG: Allocate 26 Levels for Stats-Diag #   221 AtPhDisH
(PID.TID 0000.0001) SETDIAG: Allocate 26 Levels for Stats-Diag #   219 AtPhdtTg
(PID.TID 0000.0001) SETDIAG: Allocate 26 Levels for Stats-Diag #   220 AtPhdtQg
(PID.TID 0000.0001) SETDIAG: Allocate 26 Levels for Stats-Diag #   190 SHAP_dKE
(PID.TID 0000.0001) SETDIAG: Allocate 26 Levels for Stats-Diag #    98 MoistCor
(PID.TID 0000.0001) SETDIAG: Allocate  1 Levels for Stats-Diag #   207 AtPhSens
(PID.TID 0000.0001) SETDIAG: Allocate  1 Levels for Stats-Diag #   208 AtPhEvap
(PID.TID 0000.0001) SETDIAG: Allocate  1 Levels for Stats-Diag #   209 AtPhTauX
(PID.TID 0000.0001) SETDIAG: Allocate  1 Levels for Stats-Diag #   210 AtPhTauY
(PID.TID 0000.0001) SETDIAG: Allocate  1 Levels for Stats-Diag #   211 AtPhCAPE
(PID.TID 0000.0001) SETDIAG: Allocate  1 Levels for Stats-Diag #   198 AtPhCnvP
(PID.TID 0000.0001) SETDIAG: Allocate  1 Levels for Stats-Diag #   199 AtPhLscP
(PID.TID 0000.0001) SETDIAG: Allocate  1 Levels for Stats-Diag #   191 AtPh_SST
(PID.TID 0000.0001) SETDIAG: Allocate  1 Levels for Stats-Diag #   200 AtPhInSR
(PID.TID 0000.0001) SETDIAG: Allocate  1 Levels for Stats-Diag #   202 AtPhOLR
(PID.TID 0000.0001) SETDIAG: Allocate  1 Levels for Stats-Diag #   204 AtPhNSSR
(PID.TID 0000.0001) SETDIAG: Allocate  1 Levels for Stats-Diag #   205 AtPhDSLR
(PID.TID 0000.0001) SETDIAG: Allocate  1 Levels for Stats-Diag #   206 AtPhUSLR
(PID.TID 0000.0001)   space allocated for all stats-diags:     456 levels
(PID.TID 0000.0001) DIAGSTATS_SET_POINTERS: done
(PID.TID 0000.0001) ------------------------------------------------------------
(PID.TID 0000.0001) DIAGSTATS_INI_IO: open file: dynStDiag.0000000000.txt , unit=     9
(PID.TID 0000.0001) DIAGSTATS_INI_IO: open file: diffStDiag.0000000000.txt , unit=    10
(PID.TID 0000.0001) DIAGSTATS_INI_IO: open file: flxStDiag.0000000000.txt , unit=    16
(PID.TID 0000.0001) INI_GLOBAL_DOMAIN: Found  24 CS-corner Pts in the domain
(PID.TID 0000.0001) %MON fCori_max                    =   1.4574827780704E-04
(PID.TID 0000.0001) %MON fCori_min                    =  -1.4574827780704E-04
(PID.TID 0000.0001) %MON fCori_mean                   =   0.0000000000000E+00
(PID.TID 0000.0001) %MON fCori_sd                     =   8.4202189509968E-05
(PID.TID 0000.0001) %MON fCoriG_max                   =   1.4584247033981E-04
(PID.TID 0000.0001) %MON fCoriG_min                   =  -1.4584247033981E-04
(PID.TID 0000.0001) %MON fCoriG_mean                  =   2.2587545260115E-21
(PID.TID 0000.0001) %MON fCoriG_sd                    =   8.4202189509968E-05
(PID.TID 0000.0001) %MON fCoriCos_max                 =   1.4580166994612E-04
(PID.TID 0000.0001) %MON fCoriCos_min                 =   5.2407700865903E-06
(PID.TID 0000.0001) %MON fCoriCos_mean                =   1.1514045869113E-04
(PID.TID 0000.0001) %MON fCoriCos_sd                  =   3.0375849106513E-05
(PID.TID 0000.0001) INI_CG2D: CG2D normalisation factor =  9.9119603843467461E-06
(PID.TID 0000.0001) INI_CG2D: cg2dTolerance = 1.403820515321401E-10 (Area=5.0986421043E+14)
(PID.TID 0000.0001) 
(PID.TID 0000.0001) // =======================================================
(PID.TID 0000.0001) // Model configuration
(PID.TID 0000.0001) // =======================================================
(PID.TID 0000.0001) //
(PID.TID 0000.0001) // "Physical" paramters ( PARM01 in namelist )
(PID.TID 0000.0001) //
(PID.TID 0000.0001) buoyancyRelation = /* Type of relation to get Buoyancy */
(PID.TID 0000.0001)               'ATMOSPHERIC'
(PID.TID 0000.0001)     ;
(PID.TID 0000.0001) fluidIsAir   =  /* fluid major constituent is Air */
(PID.TID 0000.0001)                   T
(PID.TID 0000.0001)     ;
(PID.TID 0000.0001) fluidIsWater =  /* fluid major constituent is Water */
(PID.TID 0000.0001)                   F
(PID.TID 0000.0001)     ;
(PID.TID 0000.0001) usingPCoords =  /* use p (or p*) vertical coordinate */
(PID.TID 0000.0001)                   T
(PID.TID 0000.0001)     ;
(PID.TID 0000.0001) usingZCoords =  /* use z (or z*) vertical coordinate */
(PID.TID 0000.0001)                   F
(PID.TID 0000.0001)     ;
(PID.TID 0000.0001) tRef =   /* Reference temperature profile ( oC or K ) */
(PID.TID 0000.0001)                 2.951000000000000E+02,      /* K =  1 */
(PID.TID 0000.0001)                 2.952000000000000E+02,      /* K =  2 */
(PID.TID 0000.0001)                 2.954000000000000E+02,      /* K =  3 */
(PID.TID 0000.0001)                 2.956000000000000E+02,      /* K =  4 */
(PID.TID 0000.0001)                 2.960000000000000E+02,      /* K =  5 */
(PID.TID 0000.0001)                 2.966000000000000E+02,      /* K =  6 */
(PID.TID 0000.0001)                 2.973000000000000E+02,      /* K =  7 */
(PID.TID 0000.0001)                 2.982000000000000E+02,      /* K =  8 */
(PID.TID 0000.0001)                 2.993000000000000E+02,      /* K =  9 */
(PID.TID 0000.0001)                 3.006000000000000E+02,      /* K = 10 */
(PID.TID 0000.0001)                 3.024000000000000E+02,      /* K = 11 */
(PID.TID 0000.0001)                 3.059000000000000E+02,      /* K = 12 */
(PID.TID 0000.0001)                 3.118000000000000E+02,      /* K = 13 */
(PID.TID 0000.0001)                 3.218000000000000E+02,      /* K = 14 */
(PID.TID 0000.0001)                 3.383000000000000E+02,      /* K = 15 */
(PID.TID 0000.0001)                 3.595000000000000E+02,      /* K = 16 */
(PID.TID 0000.0001)                 3.828000000000000E+02,      /* K = 17 */
(PID.TID 0000.0001)                 4.086000000000000E+02,      /* K = 18 */
(PID.TID 0000.0001)                 4.375000000000000E+02,      /* K = 19 */
(PID.TID 0000.0001)                 4.706000000000000E+02,      /* K = 20 */
(PID.TID 0000.0001)                 5.092000000000000E+02,      /* K = 21 */
(PID.TID 0000.0001)                 5.558000000000000E+02,      /* K = 22 */
(PID.TID 0000.0001)                 6.149000000000000E+02,      /* K = 23 */
(PID.TID 0000.0001)                 6.963000000000000E+02,      /* K = 24 */
(PID.TID 0000.0001)                 8.272000000000000E+02,      /* K = 25 */
(PID.TID 0000.0001)                 1.153600000000000E+03       /* K = 26 */
(PID.TID 0000.0001)     ;
(PID.TID 0000.0001) sRef =   /* Reference salinity profile ( psu ) */
(PID.TID 0000.0001)    26 @  0.000000000000000E+00              /* K =  1: 26 */
(PID.TID 0000.0001)     ;
(PID.TID 0000.0001) useStrainTensionVisc= /* Use StrainTension Form of Viscous Operator */
(PID.TID 0000.0001)                   F
(PID.TID 0000.0001)     ;
(PID.TID 0000.0001) useVariableVisc = /* Use variable horizontal viscosity */
(PID.TID 0000.0001)                   F
(PID.TID 0000.0001)     ;
(PID.TID 0000.0001) useHarmonicVisc = /* Use harmonic horizontal viscosity */
(PID.TID 0000.0001)                   F
(PID.TID 0000.0001)     ;
(PID.TID 0000.0001) useBiharmonicVisc= /* Use biharmonic horiz.  viscosity */
(PID.TID 0000.0001)                   F
(PID.TID 0000.0001)     ;
(PID.TID 0000.0001) useSmag3D = /* Use isotropic 3-D Smagorinsky viscosity */
(PID.TID 0000.0001)                   F
(PID.TID 0000.0001)     ;
(PID.TID 0000.0001) viscAh  =   /* Lateral harmonic viscosity ( m^2/s ) */
(PID.TID 0000.0001)                 0.000000000000000E+00
(PID.TID 0000.0001)     ;
(PID.TID 0000.0001) viscA4  =   /* Lateral biharmonic viscosity ( m^4/s ) */
(PID.TID 0000.0001)                 0.000000000000000E+00
(PID.TID 0000.0001)     ;
(PID.TID 0000.0001) no_slip_sides =  /* Viscous BCs: No-slip sides */
(PID.TID 0000.0001)                   F
(PID.TID 0000.0001)     ;
(PID.TID 0000.0001) sideDragFactor = /* side-drag scaling factor (non-dim) */
(PID.TID 0000.0001)                 2.000000000000000E+00
(PID.TID 0000.0001)     ;
(PID.TID 0000.0001) viscArNr = /* vertical profile of vertical viscosity (Pa^2/s )*/
(PID.TID 0000.0001)    26 @  0.000000000000000E+00              /* K =  1: 26 */
(PID.TID 0000.0001)     ;
(PID.TID 0000.0001) no_slip_bottom =  /* Viscous BCs: No-slip bottom */
(PID.TID 0000.0001)                   F
(PID.TID 0000.0001)     ;
(PID.TID 0000.0001) bottomVisc_pCell = /* Partial-cell in bottom Visc. BC */
(PID.TID 0000.0001)                   F
(PID.TID 0000.0001)     ;
(PID.TID 0000.0001) bottomDragLinear = /* linear bottom-drag coefficient ( m/s ) */
(PID.TID 0000.0001)                 0.000000000000000E+00
(PID.TID 0000.0001)     ;
(PID.TID 0000.0001) bottomDragQuadratic = /* quadratic bottom-drag coefficient (-) */
(PID.TID 0000.0001)                 0.000000000000000E+00
(PID.TID 0000.0001)     ;
(PID.TID 0000.0001) selectBotDragQuadr = /* select quadratic bottom drag options */
(PID.TID 0000.0001)                      -1
(PID.TID 0000.0001)     ;
(PID.TID 0000.0001) diffKhT =   /* Laplacian diffusion of heat laterally ( m^2/s ) */
(PID.TID 0000.0001)                 0.000000000000000E+00
(PID.TID 0000.0001)     ;
(PID.TID 0000.0001) diffK4T =   /* Biharmonic diffusion of heat laterally ( m^4/s ) */
(PID.TID 0000.0001)                 0.000000000000000E+00
(PID.TID 0000.0001)     ;
(PID.TID 0000.0001) diffKhS =   /* Laplacian diffusion of salt laterally ( m^2/s ) */
(PID.TID 0000.0001)                 0.000000000000000E+00
(PID.TID 0000.0001)     ;
(PID.TID 0000.0001) diffK4S =   /* Biharmonic diffusion of salt laterally ( m^4/s ) */
(PID.TID 0000.0001)                 0.000000000000000E+00
(PID.TID 0000.0001)     ;
(PID.TID 0000.0001) diffKrNrT = /* vertical profile of vertical diffusion of Temp (Pa^2/s )*/
(PID.TID 0000.0001)    26 @  0.000000000000000E+00              /* K =  1: 26 */
(PID.TID 0000.0001)     ;
(PID.TID 0000.0001) diffKrNrS = /* vertical profile of vertical diffusion of Salt (Pa^2/s )*/
(PID.TID 0000.0001)    26 @  0.000000000000000E+00              /* K =  1: 26 */
(PID.TID 0000.0001)     ;
(PID.TID 0000.0001) diffKrBL79surf = /* Surface diffusion for Bryan and Lewis 79 ( m^2/s ) */
(PID.TID 0000.0001)                 0.000000000000000E+00
(PID.TID 0000.0001)     ;
(PID.TID 0000.0001) diffKrBL79deep = /* Deep diffusion for Bryan and Lewis 1979 ( m^2/s ) */
(PID.TID 0000.0001)                 0.000000000000000E+00
(PID.TID 0000.0001)     ;
(PID.TID 0000.0001) diffKrBL79scl = /* Depth scale for Bryan and Lewis 1979 ( m ) */
(PID.TID 0000.0001)                 2.000000000000000E+02
(PID.TID 0000.0001)     ;
(PID.TID 0000.0001) diffKrBL79Ho = /* Turning depth for Bryan and Lewis 1979 ( m ) */
(PID.TID 0000.0001)                -2.000000000000000E+03
(PID.TID 0000.0001)     ;
(PID.TID 0000.0001) ivdc_kappa = /* Implicit Vertical Diffusivity for Convection (Pa^2/s) */
(PID.TID 0000.0001)                 0.000000000000000E+00
(PID.TID 0000.0001)     ;
(PID.TID 0000.0001) hMixCriteria=  /* Criteria for mixed-layer diagnostic */
(PID.TID 0000.0001)                -8.000000000000000E-01
(PID.TID 0000.0001)     ;
(PID.TID 0000.0001) dRhoSmall =  /* Parameter for mixed-layer diagnostic */
(PID.TID 0000.0001)                 1.000000000000000E-06
(PID.TID 0000.0001)     ;
(PID.TID 0000.0001) hMixSmooth=  /* Smoothing parameter for mixed-layer diagnostic */
(PID.TID 0000.0001)                 0.000000000000000E+00
(PID.TID 0000.0001)     ;
(PID.TID 0000.0001) eosType =  /* Type of Equation of State */
(PID.TID 0000.0001)               'IDEALG'
(PID.TID 0000.0001)     ;
(PID.TID 0000.0001) celsius2K = /* 0 degree Celsius converted to Kelvin ( K ) */
(PID.TID 0000.0001)                 2.731500000000000E+02
(PID.TID 0000.0001)     ;
(PID.TID 0000.0001) atm_Rd =    /* gas constant for dry air ( J/kg/K ) */
(PID.TID 0000.0001)                 2.870400000000000E+02
(PID.TID 0000.0001)     ;
(PID.TID 0000.0001) atm_Cp =    /* specific heat (Cp) of dry air ( J/kg/K ) */
(PID.TID 0000.0001)                 1.004640000000000E+03
(PID.TID 0000.0001)     ;
(PID.TID 0000.0001) atm_kappa = /* kappa (=Rd/Cp ) of dry air */
(PID.TID 0000.0001)                 2.857142857142857E-01
(PID.TID 0000.0001)     ;
(PID.TID 0000.0001) atm_Rq =  /* water vap. specific vol. anomaly relative to dry air */
(PID.TID 0000.0001)                 6.078000000000000E-01
(PID.TID 0000.0001)     ;
(PID.TID 0000.0001) atm_Po =    /* standard reference pressure ( Pa ) */
(PID.TID 0000.0001)                 1.000000000000000E+05
(PID.TID 0000.0001)     ;
(PID.TID 0000.0001) thetaConst= /* constant reference for potential temperature ( K ) */
(PID.TID 0000.0001)                 2.951000000000000E+02
(PID.TID 0000.0001)     ;
(PID.TID 0000.0001) integr_GeoPot =  /* select how the geopotential is integrated */
(PID.TID 0000.0001)                       2
(PID.TID 0000.0001)     ;
(PID.TID 0000.0001) selectFindRoSurf=  /* select how Surf.Ref. pressure is defined */
(PID.TID 0000.0001)                       1
(PID.TID 0000.0001)     ;
(PID.TID 0000.0001) rhoConst  = /* Reference density (Boussinesq)  ( kg/m^3 ) */
(PID.TID 0000.0001)                 1.000000000000000E+00
(PID.TID 0000.0001)     ;
(PID.TID 0000.0001) rhoFacC = /* normalized Reference density @ cell-Center (-) */
(PID.TID 0000.0001)    26 @  1.000000000000000E+00              /* K =  1: 26 */
(PID.TID 0000.0001)     ;
(PID.TID 0000.0001) rhoFacF = /* normalized Reference density @ W-Interface (-) */
(PID.TID 0000.0001)    27 @  1.000000000000000E+00              /* K =  1: 27 */
(PID.TID 0000.0001)     ;
(PID.TID 0000.0001) rhoConstFresh = /* Fresh-water reference density ( kg/m^3 ) */
(PID.TID 0000.0001)                 1.000000000000000E+00
(PID.TID 0000.0001)     ;
(PID.TID 0000.0001) gravity =   /* Gravitational acceleration ( m/s^2 ) */
(PID.TID 0000.0001)                 9.800000000000001E+00
(PID.TID 0000.0001)     ;
(PID.TID 0000.0001) gBaro =   /* Barotropic gravity ( m/s^2 ) */
(PID.TID 0000.0001)                 9.800000000000001E+00
(PID.TID 0000.0001)     ;
(PID.TID 0000.0001) rotationPeriod =   /* Rotation Period ( s ) */
(PID.TID 0000.0001)                 8.616400000000000E+04
(PID.TID 0000.0001)     ;
(PID.TID 0000.0001) omega =   /* Angular velocity ( rad/s ) */
(PID.TID 0000.0001)                 7.292123516990375E-05
(PID.TID 0000.0001)     ;
(PID.TID 0000.0001) f0 =   /* Reference coriolis parameter ( 1/s ) */
(PID.TID 0000.0001)                 1.000000000000000E-04
(PID.TID 0000.0001)     ;
(PID.TID 0000.0001) beta =   /* Beta ( 1/(m.s) ) */
(PID.TID 0000.0001)                 9.999999999999999E-12
(PID.TID 0000.0001)     ;
(PID.TID 0000.0001) fPrime =   /* Second coriolis parameter ( 1/s ) */
(PID.TID 0000.0001)                 0.000000000000000E+00
(PID.TID 0000.0001)     ;
(PID.TID 0000.0001) rigidLid =   /* Rigid lid on/off flag */
(PID.TID 0000.0001)                   F
(PID.TID 0000.0001)     ;
(PID.TID 0000.0001) implicitFreeSurface =   /* Implicit free surface on/off flag */
(PID.TID 0000.0001)                   T
(PID.TID 0000.0001)     ;
(PID.TID 0000.0001) freeSurfFac =   /* Implicit free surface factor */
(PID.TID 0000.0001)                 1.000000000000000E+00
(PID.TID 0000.0001)     ;
(PID.TID 0000.0001) implicSurfPress =  /* Surface Pressure implicit factor (0-1)*/
(PID.TID 0000.0001)                 1.000000000000000E+00
(PID.TID 0000.0001)     ;
(PID.TID 0000.0001) implicDiv2Dflow =  /* Barot. Flow Div. implicit factor (0-1)*/
(PID.TID 0000.0001)                 1.000000000000000E+00
(PID.TID 0000.0001)     ;
(PID.TID 0000.0001) uniformLin_PhiSurf = /* use uniform Bo_surf on/off flag*/
(PID.TID 0000.0001)                   F
(PID.TID 0000.0001)     ;
(PID.TID 0000.0001) uniformFreeSurfLev = /* free-surface level-index is uniform */
(PID.TID 0000.0001)                   F
(PID.TID 0000.0001)     ;
(PID.TID 0000.0001) hFacMin =   /* minimum partial cell factor (hFac) */
(PID.TID 0000.0001)                 1.000000000000000E+00
(PID.TID 0000.0001)     ;
(PID.TID 0000.0001) hFacMinDr = /* minimum partial cell thickness (Pa) */
(PID.TID 0000.0001)                 0.000000000000000E+00
(PID.TID 0000.0001)     ;
(PID.TID 0000.0001) exactConserv =  /* Exact Volume Conservation on/off flag*/
(PID.TID 0000.0001)                   T
(PID.TID 0000.0001)     ;
(PID.TID 0000.0001) linFSConserveTr = /* Tracer correction for Lin Free Surface on/off flag*/
(PID.TID 0000.0001)                   F
(PID.TID 0000.0001)     ;
(PID.TID 0000.0001) nonlinFreeSurf = /* Non-linear Free Surf. options (-1,0,1,2,3)*/
(PID.TID 0000.0001)                       4
(PID.TID 0000.0001)      -1,0= Off ; 1,2,3= On, 2=+rescale gU,gV, 3=+update cg2d solv.
(PID.TID 0000.0001)     ;
(PID.TID 0000.0001) hFacInf =   /* lower threshold for hFac (nonlinFreeSurf only)*/
(PID.TID 0000.0001)                 2.000000000000000E-01
(PID.TID 0000.0001)     ;
(PID.TID 0000.0001) hFacSup =   /* upper threshold for hFac (nonlinFreeSurf only)*/
(PID.TID 0000.0001)                 2.000000000000000E+00
(PID.TID 0000.0001)     ;
(PID.TID 0000.0001) select_rStar = /* r* Vertical coord. options (=0 r coord.; >0 uses r*)*/
(PID.TID 0000.0001)                       2
(PID.TID 0000.0001)     ;
(PID.TID 0000.0001) useRealFreshWaterFlux = /* Real Fresh Water Flux on/off flag*/
(PID.TID 0000.0001)                   F
(PID.TID 0000.0001)     ;
(PID.TID 0000.0001) temp_EvPrRn = /* Temp. of Evap/Prec/R (UNSET=use local T)(oC)*/
(PID.TID 0000.0001)                 1.234567000000000E+05
(PID.TID 0000.0001)     ;
(PID.TID 0000.0001) salt_EvPrRn = /* Salin. of Evap/Prec/R (UNSET=use local S)(psu)*/
(PID.TID 0000.0001)                 0.000000000000000E+00
(PID.TID 0000.0001)     ;
(PID.TID 0000.0001) selectAddFluid = /* option for mass source/sink of fluid (=0: off) */
(PID.TID 0000.0001)                       0
(PID.TID 0000.0001)     ;
(PID.TID 0000.0001) temp_addMass = /* Temp. of addMass array (UNSET=use local T)(oC)*/
(PID.TID 0000.0001)                 1.234567000000000E+05
(PID.TID 0000.0001)     ;
(PID.TID 0000.0001) salt_addMass = /* Salin. of addMass array (UNSET=use local S)(psu)*/
(PID.TID 0000.0001)                 0.000000000000000E+00
(PID.TID 0000.0001)     ;
(PID.TID 0000.0001) convertFW2Salt = /* convert F.W. Flux to Salt Flux (-1=use local S)(psu)*/
(PID.TID 0000.0001)                 3.500000000000000E+01
(PID.TID 0000.0001)     ;
(PID.TID 0000.0001) use3Dsolver = /* use 3-D pressure solver on/off flag */
(PID.TID 0000.0001)                   F
(PID.TID 0000.0001)     ;
(PID.TID 0000.0001) nonHydrostatic =  /* Non-Hydrostatic on/off flag */
(PID.TID 0000.0001)                   F
(PID.TID 0000.0001)     ;
(PID.TID 0000.0001) nh_Am2 = /* Non-Hydrostatic terms scaling factor */
(PID.TID 0000.0001)                 1.000000000000000E+00
(PID.TID 0000.0001)     ;
(PID.TID 0000.0001) implicitNHPress = /* Non-Hyd Pressure implicit factor (0-1)*/
(PID.TID 0000.0001)                 1.000000000000000E+00
(PID.TID 0000.0001)     ;
(PID.TID 0000.0001) selectNHfreeSurf = /* Non-Hyd (free-)Surface option */
(PID.TID 0000.0001)                       0
(PID.TID 0000.0001)     ;
(PID.TID 0000.0001) quasiHydrostatic = /* Quasi-Hydrostatic on/off flag */
(PID.TID 0000.0001)                   F
(PID.TID 0000.0001)     ;
(PID.TID 0000.0001) calc_wVelocity = /* vertical velocity calculation on/off flag */
(PID.TID 0000.0001)                   T
(PID.TID 0000.0001)     ;
(PID.TID 0000.0001) momStepping =  /* Momentum equation on/off flag */
(PID.TID 0000.0001)                   T
(PID.TID 0000.0001)     ;
(PID.TID 0000.0001) vectorInvariantMomentum= /* Vector-Invariant Momentum on/off */
(PID.TID 0000.0001)                   T
(PID.TID 0000.0001)     ;
(PID.TID 0000.0001) momAdvection =  /* Momentum advection on/off flag */
(PID.TID 0000.0001)                   T
(PID.TID 0000.0001)     ;
(PID.TID 0000.0001) momViscosity =  /* Momentum viscosity on/off flag */
(PID.TID 0000.0001)                   T
(PID.TID 0000.0001)     ;
(PID.TID 0000.0001) momImplVertAdv= /* Momentum implicit vert. advection on/off*/
(PID.TID 0000.0001)                   F
(PID.TID 0000.0001)     ;
(PID.TID 0000.0001) implicitViscosity = /* Implicit viscosity on/off flag */
(PID.TID 0000.0001)                   F
(PID.TID 0000.0001)     ;
(PID.TID 0000.0001) implBottomFriction= /* Implicit bottom friction on/off flag */
(PID.TID 0000.0001)                   F
(PID.TID 0000.0001)     ;
(PID.TID 0000.0001) metricTerms =  /* metric-Terms on/off flag */
(PID.TID 0000.0001)                   F
(PID.TID 0000.0001)     ;
(PID.TID 0000.0001) useNHMTerms = /* Non-Hydrostatic Metric-Terms on/off */
(PID.TID 0000.0001)                   F
(PID.TID 0000.0001)     ;
(PID.TID 0000.0001) selectCoriMap = /* Coriolis Map options (0,1,2,3)*/
(PID.TID 0000.0001)                       2
(PID.TID 0000.0001)     0= f-Plane ; 1= Beta-Plane ; 2= Spherical ; 3= read from file
(PID.TID 0000.0001)     ;
(PID.TID 0000.0001) use3dCoriolis = /* 3-D Coriolis on/off flag */
(PID.TID 0000.0001)                   F
(PID.TID 0000.0001)     ;
(PID.TID 0000.0001) useCoriolis =  /* Coriolis on/off flag */
(PID.TID 0000.0001)                   T
(PID.TID 0000.0001)     ;
(PID.TID 0000.0001) useCDscheme =  /* CD scheme on/off flag */
(PID.TID 0000.0001)                   F
(PID.TID 0000.0001)     ;
(PID.TID 0000.0001) useEnergyConservingCoriolis= /* Flx-Form Coriolis scheme flag */
(PID.TID 0000.0001)                   F
(PID.TID 0000.0001)     ;
(PID.TID 0000.0001) useJamartWetPoints= /* Coriolis WetPoints method flag */
(PID.TID 0000.0001)                   F
(PID.TID 0000.0001)     ;
(PID.TID 0000.0001) useJamartMomAdv= /* V.I Non-linear terms Jamart flag */
(PID.TID 0000.0001)                   F
(PID.TID 0000.0001)     ;
(PID.TID 0000.0001) useAbsVorticity= /* V.I Works with f+zeta in Coriolis */
(PID.TID 0000.0001)                   T
(PID.TID 0000.0001)     ;
(PID.TID 0000.0001) selectVortScheme= /* V.I Scheme selector for Vorticity-Term */
(PID.TID 0000.0001)                       3
(PID.TID 0000.0001)    = 0 : enstrophy (Shallow-Water Eq.) conserving scheme by Sadourny, JAS 75
(PID.TID 0000.0001)    = 1 : same as 0 with modified hFac
(PID.TID 0000.0001)    = 2 : energy conserving scheme (used by Sadourny in JAS 75 paper)
(PID.TID 0000.0001)    = 3 : energy (general) and enstrophy (2D, nonDiv.) conserving scheme
(PID.TID 0000.0001)          from Sadourny (Burridge & Haseler, ECMWF Rep.4, 1977)
(PID.TID 0000.0001)     ;
(PID.TID 0000.0001) upwindVorticity= /* V.I Upwind bias vorticity flag */
(PID.TID 0000.0001)                   F
(PID.TID 0000.0001)     ;
(PID.TID 0000.0001) highOrderVorticity= /* V.I High order vort. advect. flag */
(PID.TID 0000.0001)                   F
(PID.TID 0000.0001)     ;
(PID.TID 0000.0001) upwindShear= /* V.I Upwind vertical Shear advection flag */
(PID.TID 0000.0001)                   F
(PID.TID 0000.0001)     ;
(PID.TID 0000.0001) selectKEscheme= /* V.I Kinetic Energy scheme selector */
(PID.TID 0000.0001)                       3
(PID.TID 0000.0001)     ;
(PID.TID 0000.0001) momForcing =  /* Momentum forcing on/off flag */
(PID.TID 0000.0001)                   T
(PID.TID 0000.0001)     ;
(PID.TID 0000.0001) momPressureForcing =  /* Momentum pressure term on/off flag */
(PID.TID 0000.0001)                   T
(PID.TID 0000.0001)     ;
(PID.TID 0000.0001) implicitIntGravWave= /* Implicit Internal Gravity Wave flag */
(PID.TID 0000.0001)                   F
(PID.TID 0000.0001)     ;
(PID.TID 0000.0001) staggerTimeStep =    /* Stagger time stepping on/off flag */
(PID.TID 0000.0001)                   T
(PID.TID 0000.0001)     ;
(PID.TID 0000.0001) doResetHFactors = /* reset thickness factors @ each time-step */
(PID.TID 0000.0001)                   F
(PID.TID 0000.0001)     ;
(PID.TID 0000.0001) multiDimAdvection =  /* enable/disable Multi-Dim Advection */
(PID.TID 0000.0001)                   T
(PID.TID 0000.0001)     ;
(PID.TID 0000.0001) useMultiDimAdvec =   /* Multi-Dim Advection is/is-not used */
(PID.TID 0000.0001)                   T
(PID.TID 0000.0001)     ;
(PID.TID 0000.0001) implicitDiffusion = /* Implicit Diffusion on/off flag */
(PID.TID 0000.0001)                   F
(PID.TID 0000.0001)     ;
(PID.TID 0000.0001) tempStepping =  /* Temperature equation on/off flag */
(PID.TID 0000.0001)                   T
(PID.TID 0000.0001)     ;
(PID.TID 0000.0001) tempAdvection = /* Temperature advection on/off flag */
(PID.TID 0000.0001)                   T
(PID.TID 0000.0001)     ;
(PID.TID 0000.0001) tempImplVertAdv = /* Temp. implicit vert. advection on/off */
(PID.TID 0000.0001)                   F
(PID.TID 0000.0001)     ;
(PID.TID 0000.0001) tempForcing  =  /* Temperature forcing on/off flag */
(PID.TID 0000.0001)                   T
(PID.TID 0000.0001)     ;
(PID.TID 0000.0001) addFrictionHeating= /* account for frictional heating */
(PID.TID 0000.0001)                   T
(PID.TID 0000.0001)     ;
(PID.TID 0000.0001) doThetaClimRelax = /* apply SST relaxation on/off flag */
(PID.TID 0000.0001)                   F
(PID.TID 0000.0001)     ;
(PID.TID 0000.0001) tempIsActiveTr = /* Temp. is a dynamically Active Tracer */
(PID.TID 0000.0001)                   T
(PID.TID 0000.0001)     ;
(PID.TID 0000.0001) saltStepping =  /* Salinity equation on/off flag */
(PID.TID 0000.0001)                   T
(PID.TID 0000.0001)     ;
(PID.TID 0000.0001) saltAdvection = /* Salinity advection on/off flag */
(PID.TID 0000.0001)                   T
(PID.TID 0000.0001)     ;
(PID.TID 0000.0001) saltImplVertAdv = /* Sali. implicit vert. advection on/off */
(PID.TID 0000.0001)                   F
(PID.TID 0000.0001)     ;
(PID.TID 0000.0001) saltForcing  =  /* Salinity forcing on/off flag */
(PID.TID 0000.0001)                   T
(PID.TID 0000.0001)     ;
(PID.TID 0000.0001) doSaltClimRelax = /* apply SSS relaxation on/off flag */
(PID.TID 0000.0001)                   F
(PID.TID 0000.0001)     ;
(PID.TID 0000.0001) saltIsActiveTr = /* Salt  is a dynamically Active Tracer */
(PID.TID 0000.0001)                   T
(PID.TID 0000.0001)     ;
(PID.TID 0000.0001)  readBinaryPrec = /* Precision used for reading binary files */
(PID.TID 0000.0001)                      64
(PID.TID 0000.0001)     ;
(PID.TID 0000.0001) writeBinaryPrec = /* Precision used for writing binary files */
(PID.TID 0000.0001)                      64
(PID.TID 0000.0001)     ;
(PID.TID 0000.0001)  globalFiles = /* write "global" (=not per tile) files */
(PID.TID 0000.0001)                   F
(PID.TID 0000.0001)     ;
(PID.TID 0000.0001)  useSingleCpuIO = /* only master MPI process does I/O */
(PID.TID 0000.0001)                   F
(PID.TID 0000.0001)     ;
(PID.TID 0000.0001)  useSingleCpuInput = /* only master process reads input */
(PID.TID 0000.0001)                   F
(PID.TID 0000.0001)     ;
(PID.TID 0000.0001) /* debLev[*]  : level of debug & auxiliary message printing */
(PID.TID 0000.0001) debLevZero =  0 ; /* level of disabled aux. msg printing */
(PID.TID 0000.0001)    debLevA =  1 ; /* level of minimum  aux. msg printing */
(PID.TID 0000.0001)    debLevB =  2 ; /* level of low aux. print (report read-file opening)*/
(PID.TID 0000.0001)    debLevC =  3 ; /* level of moderate debug prt (most pkgs debug msg) */
(PID.TID 0000.0001)    debLevD =  4 ; /* level of enhanced debug prt (add DEBUG_STATS prt) */
(PID.TID 0000.0001)    debLevE =  5 ; /* level of extensive debug printing */
(PID.TID 0000.0001) debugLevel =  /* select debug printing level */
(PID.TID 0000.0001)                       2
(PID.TID 0000.0001)     ;
(PID.TID 0000.0001) //
(PID.TID 0000.0001) // Elliptic solver(s) paramters ( PARM02 in namelist )
(PID.TID 0000.0001) //
(PID.TID 0000.0001) cg2dMaxIters =   /* Upper limit on 2d con. grad iterations  */
(PID.TID 0000.0001)                     200
(PID.TID 0000.0001)     ;
(PID.TID 0000.0001) cg2dChkResFreq =   /* 2d con. grad convergence test frequency */
(PID.TID 0000.0001)                       1
(PID.TID 0000.0001)     ;
(PID.TID 0000.0001) cg2dUseMinResSol= /* use cg2d last-iter(=0) / min-resid.(=1) solution */
(PID.TID 0000.0001)                       0
(PID.TID 0000.0001)     ;
(PID.TID 0000.0001) cg2dTargetResidual =   /* 2d con. grad target residual  */
(PID.TID 0000.0001)                 1.000000000000000E-07
(PID.TID 0000.0001)     ;
(PID.TID 0000.0001) cg2dTargetResWunit =   /* CG2d target residual [W units] */
(PID.TID 0000.0001)                 1.000000000000000E-17
(PID.TID 0000.0001)     ;
(PID.TID 0000.0001) cg2dPreCondFreq =   /* Freq. for updating cg2d preconditioner */
(PID.TID 0000.0001)                       1
(PID.TID 0000.0001)     ;
(PID.TID 0000.0001) useSRCGSolver =  /* use single reduction CG solver(s) */
(PID.TID 0000.0001)                   F
(PID.TID 0000.0001)     ;
(PID.TID 0000.0001) printResidualFreq = /* Freq. for printing CG residual */
(PID.TID 0000.0001)                       0
(PID.TID 0000.0001)     ;
(PID.TID 0000.0001) //
(PID.TID 0000.0001) // Time stepping paramters ( PARM03 in namelist )
(PID.TID 0000.0001) //
(PID.TID 0000.0001) deltaTMom =   /* Momentum equation timestep ( s ) */
(PID.TID 0000.0001)                 3.600000000000000E+02
(PID.TID 0000.0001)     ;
(PID.TID 0000.0001) deltaTFreeSurf = /* FreeSurface equation timestep ( s ) */
(PID.TID 0000.0001)                 3.600000000000000E+02
(PID.TID 0000.0001)     ;
(PID.TID 0000.0001) dTtracerLev =  /* Tracer equation timestep ( s ) */
(PID.TID 0000.0001)    26 @  3.600000000000000E+02              /* K =  1: 26 */
(PID.TID 0000.0001)     ;
(PID.TID 0000.0001) deltaTClock  =   /* Model clock timestep ( s ) */
(PID.TID 0000.0001)                 3.600000000000000E+02
(PID.TID 0000.0001)     ;
(PID.TID 0000.0001) cAdjFreq =   /* Convective adjustment interval ( s ) */
(PID.TID 0000.0001)                 0.000000000000000E+00
(PID.TID 0000.0001)     ;
(PID.TID 0000.0001) momForcingOutAB = /* =1: take Momentum Forcing out of Adams-Bash. stepping */
(PID.TID 0000.0001)                       1
(PID.TID 0000.0001)     ;
(PID.TID 0000.0001) tracForcingOutAB = /* =1: take T,S,pTr Forcing out of Adams-Bash. stepping */
(PID.TID 0000.0001)                       1
(PID.TID 0000.0001)     ;
(PID.TID 0000.0001) momDissip_In_AB = /* put Dissipation Tendency in Adams-Bash. stepping */
(PID.TID 0000.0001)                   T
(PID.TID 0000.0001)     ;
(PID.TID 0000.0001) doAB_onGtGs = /* apply AB on Tendencies (rather than on T,S)*/
(PID.TID 0000.0001)                   T
(PID.TID 0000.0001)     ;
(PID.TID 0000.0001) abEps =   /* Adams-Bashforth-2 stabilizing weight */
(PID.TID 0000.0001)                 1.000000000000000E-01
(PID.TID 0000.0001)     ;
(PID.TID 0000.0001) pickupStrictlyMatch= /* stop if pickup do not strictly match */
(PID.TID 0000.0001)                   T
(PID.TID 0000.0001)     ;
(PID.TID 0000.0001) nIter0   =   /* Run starting timestep number */
(PID.TID 0000.0001)                       0
(PID.TID 0000.0001)     ;
(PID.TID 0000.0001) nTimeSteps = /* Number of timesteps */
(PID.TID 0000.0001)                      40
(PID.TID 0000.0001)     ;
(PID.TID 0000.0001) nEndIter =   /* Run ending timestep number */
(PID.TID 0000.0001)                      40
(PID.TID 0000.0001)     ;
(PID.TID 0000.0001) baseTime =   /* Model base time ( s ) */
(PID.TID 0000.0001)                 0.000000000000000E+00
(PID.TID 0000.0001)     ;
(PID.TID 0000.0001) startTime =  /* Run start time ( s ) */
(PID.TID 0000.0001)                 0.000000000000000E+00
(PID.TID 0000.0001)     ;
(PID.TID 0000.0001) endTime  =   /* Integration ending time ( s ) */
(PID.TID 0000.0001)                 1.440000000000000E+04
(PID.TID 0000.0001)     ;
(PID.TID 0000.0001) pChkPtFreq = /* Permanent restart/pickup file interval ( s ) */
(PID.TID 0000.0001)                 2.488320000000000E+08
(PID.TID 0000.0001)     ;
(PID.TID 0000.0001) chkPtFreq  = /* Rolling restart/pickup file interval ( s ) */
(PID.TID 0000.0001)                 6.220800000000000E+07
(PID.TID 0000.0001)     ;
(PID.TID 0000.0001) pickup_write_mdsio =   /* Model IO flag. */
(PID.TID 0000.0001)                   T
(PID.TID 0000.0001)     ;
(PID.TID 0000.0001) pickup_read_mdsio =   /* Model IO flag. */
(PID.TID 0000.0001)                   T
(PID.TID 0000.0001)     ;
(PID.TID 0000.0001) pickup_write_immed =   /* Model IO flag. */
(PID.TID 0000.0001)                   F
(PID.TID 0000.0001)     ;
(PID.TID 0000.0001) writePickupAtEnd =   /* Model IO flag. */
(PID.TID 0000.0001)                   T
(PID.TID 0000.0001)     ;
(PID.TID 0000.0001) dumpFreq =   /* Model state write out interval ( s ). */
(PID.TID 0000.0001)                 3.110400000000000E+07
(PID.TID 0000.0001)     ;
(PID.TID 0000.0001) dumpInitAndLast= /* write out Initial & Last iter. model state */
(PID.TID 0000.0001)                   T
(PID.TID 0000.0001)     ;
(PID.TID 0000.0001) snapshot_mdsio =   /* Model IO flag. */
(PID.TID 0000.0001)                   T
(PID.TID 0000.0001)     ;
(PID.TID 0000.0001) monitorFreq =   /* Monitor output interval ( s ). */
(PID.TID 0000.0001)                 1.000000000000000E+00
(PID.TID 0000.0001)     ;
(PID.TID 0000.0001) monitorSelect = /* select group of variables to monitor */
(PID.TID 0000.0001)                       2
(PID.TID 0000.0001)     ;
(PID.TID 0000.0001) monitor_stdio =   /* Model IO flag. */
(PID.TID 0000.0001)                   T
(PID.TID 0000.0001)     ;
(PID.TID 0000.0001) externForcingPeriod =   /* forcing period (s) */
(PID.TID 0000.0001)                 0.000000000000000E+00
(PID.TID 0000.0001)     ;
(PID.TID 0000.0001) externForcingCycle =   /* period of the cyle (s). */
(PID.TID 0000.0001)                 0.000000000000000E+00
(PID.TID 0000.0001)     ;
(PID.TID 0000.0001) tauThetaClimRelax =   /* relaxation time scale (s) */
(PID.TID 0000.0001)                 0.000000000000000E+00
(PID.TID 0000.0001)     ;
(PID.TID 0000.0001) tauSaltClimRelax =   /* relaxation time scale (s) */
(PID.TID 0000.0001)                 0.000000000000000E+00
(PID.TID 0000.0001)     ;
(PID.TID 0000.0001) latBandClimRelax =   /* max. Lat. where relaxation */
(PID.TID 0000.0001)                 1.800000000000000E+02
(PID.TID 0000.0001)     ;
(PID.TID 0000.0001) //
(PID.TID 0000.0001) // Gridding paramters ( PARM04 in namelist )
(PID.TID 0000.0001) //
(PID.TID 0000.0001) usingCartesianGrid = /* Cartesian coordinates flag ( True/False ) */
(PID.TID 0000.0001)                   F
(PID.TID 0000.0001)     ;
(PID.TID 0000.0001) usingCylindricalGrid = /* Cylindrical coordinates flag ( True/False ) */
(PID.TID 0000.0001)                   F
(PID.TID 0000.0001)     ;
(PID.TID 0000.0001) usingSphericalPolarGrid = /* Spherical coordinates flag ( True/False ) */
(PID.TID 0000.0001)                   F
(PID.TID 0000.0001)     ;
(PID.TID 0000.0001) usingCurvilinearGrid = /* Curvilinear coordinates flag ( True/False ) */
(PID.TID 0000.0001)                   T
(PID.TID 0000.0001)     ;
(PID.TID 0000.0001) selectSigmaCoord = /* Hybrid-Sigma Vert. Coordinate option */
(PID.TID 0000.0001)                       0
(PID.TID 0000.0001)     ;
(PID.TID 0000.0001) Ro_SeaLevel = /* r(1) ( units of r == Pa ) */
(PID.TID 0000.0001)                 1.000000000000000E+05
(PID.TID 0000.0001)     ;
(PID.TID 0000.0001) rSigmaBnd = /* r/sigma transition ( units of r == Pa ) */
(PID.TID 0000.0001)                 1.234567000000000E+05
(PID.TID 0000.0001)     ;
(PID.TID 0000.0001) rkSign =   /* index orientation relative to vertical coordinate */
(PID.TID 0000.0001)                -1.000000000000000E+00
(PID.TID 0000.0001)     ;
(PID.TID 0000.0001) gravitySign = /* gravity orientation relative to vertical coordinate */
(PID.TID 0000.0001)                 1.000000000000000E+00
(PID.TID 0000.0001)     ;
(PID.TID 0000.0001) mass2rUnit = /* convert mass per unit area [kg/m2] to r-units [Pa] */
(PID.TID 0000.0001)                 9.800000000000001E+00
(PID.TID 0000.0001)     ;
(PID.TID 0000.0001) rUnit2mass = /* convert r-units [Pa] to mass per unit area [kg/m2] */
(PID.TID 0000.0001)                 1.020408163265306E-01
(PID.TID 0000.0001)     ;
(PID.TID 0000.0001) drC =   /* C spacing ( units of r ) */
(PID.TID 0000.0001)                 7.500000000000000E+02,      /* K =  1 */
(PID.TID 0000.0001)                 1.811000000000000E+03,      /* K =  2 */
(PID.TID 0000.0001)                 2.561000000000000E+03,      /* K =  3 */
(PID.TID 0000.0001)                 3.621000000000000E+03,      /* K =  4 */
(PID.TID 0000.0001)                 5.121000000000000E+03,      /* K =  5 */
(PID.TID 0000.0001)                 6.900000000000000E+03,      /* K =  6 */
(PID.TID 0000.0001)                 8.450000000000000E+03,      /* K =  7 */
(PID.TID 0000.0001)                 9.250000000000000E+03,      /* K =  8 */
(PID.TID 0000.0001)                 9.340000000000000E+03,      /* K =  9 */
(PID.TID 0000.0001)                 8.840000000000000E+03,      /* K = 10 */
(PID.TID 0000.0001)                 7.690000000000000E+03,      /* K = 11 */
(PID.TID 0000.0001)                 6.390000000000000E+03,      /* K = 12 */
(PID.TID 0000.0001)                 5.310000000000000E+03,      /* K = 13 */
(PID.TID 0000.0001)                 4.412000000000000E+03,      /* K = 14 */
(PID.TID 0000.0001)                 3.666000000000000E+03,      /* K = 15 */
(PID.TID 0000.0001)                 3.047000000000000E+03,      /* K = 16 */
(PID.TID 0000.0001)                 2.532000000000000E+03,      /* K = 17 */
(PID.TID 0000.0001)                 2.104000000000000E+03,      /* K = 18 */
(PID.TID 0000.0001)                 1.748000000000000E+03,      /* K = 19 */
(PID.TID 0000.0001)                 1.452000000000000E+03,      /* K = 20 */
(PID.TID 0000.0001)                 1.207000000000000E+03,      /* K = 21 */
(PID.TID 0000.0001)                 1.003000000000000E+03,      /* K = 22 */
(PID.TID 0000.0001)                 8.330000000000000E+02,      /* K = 23 */
(PID.TID 0000.0001)                 6.920000000000000E+02,      /* K = 24 */
(PID.TID 0000.0001)                 5.750000000000000E+02,      /* K = 25 */
(PID.TID 0000.0001)                 4.780000000000000E+02,      /* K = 26 */
(PID.TID 0000.0001)                 2.170000000000000E+02       /* K = 27 */
(PID.TID 0000.0001)     ;
(PID.TID 0000.0001) drF =   /* W spacing ( units of r ) */
(PID.TID 0000.0001)                 1.500000000000000E+03,      /* K =  1 */
(PID.TID 0000.0001)                 2.122000000000000E+03,      /* K =  2 */
(PID.TID 0000.0001)                 3.000000000000000E+03,      /* K =  3 */
(PID.TID 0000.0001)                 4.242000000000000E+03,      /* K =  4 */
(PID.TID 0000.0001)                 6.000000000000000E+03,      /* K =  5 */
(PID.TID 0000.0001)                 7.800000000000000E+03,      /* K =  6 */
(PID.TID 0000.0001)                 9.100000000000000E+03,      /* K =  7 */
(PID.TID 0000.0001)                 9.400000000000000E+03,      /* K =  8 */
(PID.TID 0000.0001)                 9.280000000000000E+03,      /* K =  9 */
(PID.TID 0000.0001)                 8.400000000000000E+03,      /* K = 10 */
(PID.TID 0000.0001)                 6.980000000000000E+03,      /* K = 11 */
(PID.TID 0000.0001)                 5.800000000000000E+03,      /* K = 12 */
(PID.TID 0000.0001)                 4.820000000000000E+03,      /* K = 13 */
(PID.TID 0000.0001)                 4.004000000000000E+03,      /* K = 14 */
(PID.TID 0000.0001)                 3.328000000000000E+03,      /* K = 15 */
(PID.TID 0000.0001)                 2.766000000000000E+03,      /* K = 16 */
(PID.TID 0000.0001)                 2.298000000000000E+03,      /* K = 17 */
(PID.TID 0000.0001)                 1.910000000000000E+03,      /* K = 18 */
(PID.TID 0000.0001)                 1.586000000000000E+03,      /* K = 19 */
(PID.TID 0000.0001)                 1.318000000000000E+03,      /* K = 20 */
(PID.TID 0000.0001)                 1.096000000000000E+03,      /* K = 21 */
(PID.TID 0000.0001)                 9.100000000000000E+02,      /* K = 22 */
(PID.TID 0000.0001)                 7.560000000000000E+02,      /* K = 23 */
(PID.TID 0000.0001)                 6.280000000000000E+02,      /* K = 24 */
(PID.TID 0000.0001)                 5.220000000000000E+02,      /* K = 25 */
(PID.TID 0000.0001)                 4.340000000000000E+02       /* K = 26 */
(PID.TID 0000.0001)     ;
(PID.TID 0000.0001) radius_fromHorizGrid = /* sphere Radius of input horiz. grid */
(PID.TID 0000.0001)                 6.370000000000000E+06
(PID.TID 0000.0001)     ;
(PID.TID 0000.0001) rSphere =  /* Radius ( ignored - cartesian, m - spherical ) */
(PID.TID 0000.0001)                 6.370000000000000E+06
(PID.TID 0000.0001)     ;
(PID.TID 0000.0001) deepAtmosphere = /* Deep/Shallow Atmosphere flag (True/False) */
(PID.TID 0000.0001)                   F
(PID.TID 0000.0001)     ;
(PID.TID 0000.0001) xC =  /* xC(:,1,:,1) : P-point X coord ( deg. or m if cartesian) */
(PID.TID 0000.0001)                -4.439521994760536E+01,      /* I =  1 */
(PID.TID 0000.0001)                -4.295641272275883E+01,      /* I =  2 */
(PID.TID 0000.0001)                -4.122055553388957E+01,      /* I =  3 */
(PID.TID 0000.0001)      . . .
(PID.TID 0000.0001)                 8.070819219728060E+01,      /* I = 46 */
(PID.TID 0000.0001)                 8.439652466417766E+01,      /* I = 47 */
(PID.TID 0000.0001)                 8.812739148696656E+01,      /* I = 48 */
(PID.TID 0000.0001)                 9.187260851303344E+01,      /* I = 49 */
(PID.TID 0000.0001)                 9.560347533582234E+01,      /* I = 50 */
(PID.TID 0000.0001)                 9.929180780271940E+01,      /* I = 51 */
(PID.TID 0000.0001)      . . .
(PID.TID 0000.0001)                 1.321863035748696E+02,      /* I = 94 */
(PID.TID 0000.0001)                 1.337919453120370E+02,      /* I = 95 */
(PID.TID 0000.0001)                 1.350000000000000E+02,      /* I = 96 */
(PID.TID 0000.0001)                 1.356047800523947E+02,      /* I = 97 */
(PID.TID 0000.0001)                 1.358367907661329E+02,      /* I = 98 */
(PID.TID 0000.0001)                 1.359720382181193E+02,      /* I = 99 */
(PID.TID 0000.0001)      . . .
(PID.TID 0000.0001)                -1.336511021209287E+02,      /* I =142 */
(PID.TID 0000.0001)                -1.336469399409420E+02,      /* I =143 */
(PID.TID 0000.0001)                -1.336449032499283E+02,      /* I =144 */
(PID.TID 0000.0001)                -1.336449032499283E+02,      /* I =145 */
(PID.TID 0000.0001)                -1.336469399409420E+02,      /* I =146 */
(PID.TID 0000.0001)                -1.336511021209287E+02,      /* I =147 */
(PID.TID 0000.0001)      . . .
(PID.TID 0000.0001)                 1.378136964251304E+02,      /* I =190 */
(PID.TID 0000.0001)                 1.362080546879630E+02,      /* I =191 */
(PID.TID 0000.0001)                 1.350000000000000E+02       /* I =192 */
(PID.TID 0000.0001)     ;
(PID.TID 0000.0001) yC =  /* yC(1,:,1,:) : P-point Y coord ( deg. or m if cartesian) */
(PID.TID 0000.0001)                -3.497677942598243E+01,      /* J =  1 */
(PID.TID 0000.0001)                -3.374005967394886E+01,      /* J =  2 */
(PID.TID 0000.0001)                -3.220655175667454E+01,      /* J =  3 */
(PID.TID 0000.0001)                -3.045756348838641E+01,      /* J =  4 */
(PID.TID 0000.0001)                -2.853728129852918E+01,      /* J =  5 */
(PID.TID 0000.0001)                -2.647426640173173E+01,      /* J =  6 */
(PID.TID 0000.0001)                -2.428936657094636E+01,      /* J =  7 */
(PID.TID 0000.0001)                -2.199915808312262E+01,      /* J =  8 */
(PID.TID 0000.0001)                -1.961768597440146E+01,      /* J =  9 */
(PID.TID 0000.0001)                -1.715743888281371E+01,      /* J = 10 */
(PID.TID 0000.0001)                -1.462993396899330E+01,      /* J = 11 */
(PID.TID 0000.0001)                -1.204608340464756E+01,      /* J = 12 */
(PID.TID 0000.0001)                -9.416429130284818E+00,      /* J = 13 */
(PID.TID 0000.0001)                -6.751293662992216E+00,      /* J = 14 */
(PID.TID 0000.0001)                -4.060875511835959E+00,      /* J = 15 */
(PID.TID 0000.0001)                -1.355307764409121E+00,      /* J = 16 */
(PID.TID 0000.0001)                 1.355307764409121E+00,      /* J = 17 */
(PID.TID 0000.0001)                 4.060875511835959E+00,      /* J = 18 */
(PID.TID 0000.0001)                 6.751293662992216E+00,      /* J = 19 */
(PID.TID 0000.0001)                 9.416429130284818E+00,      /* J = 20 */
(PID.TID 0000.0001)                 1.204608340464756E+01,      /* J = 21 */
(PID.TID 0000.0001)                 1.462993396899330E+01,      /* J = 22 */
(PID.TID 0000.0001)                 1.715743888281371E+01,      /* J = 23 */
(PID.TID 0000.0001)                 1.961768597440146E+01,      /* J = 24 */
(PID.TID 0000.0001)                 2.199915808312262E+01,      /* J = 25 */
(PID.TID 0000.0001)                 2.428936657094636E+01,      /* J = 26 */
(PID.TID 0000.0001)                 2.647426640173173E+01,      /* J = 27 */
(PID.TID 0000.0001)                 2.853728129852918E+01,      /* J = 28 */
(PID.TID 0000.0001)                 3.045756348838641E+01,      /* J = 29 */
(PID.TID 0000.0001)                 3.220655175667454E+01,      /* J = 30 */
(PID.TID 0000.0001)                 3.374005967394886E+01,      /* J = 31 */
(PID.TID 0000.0001)                 3.497677942598243E+01       /* J = 32 */
(PID.TID 0000.0001)     ;
(PID.TID 0000.0001) rcoord = /* P-point R coordinate (  units of r ) */
(PID.TID 0000.0001)                 9.925000000000000E+04,      /* K =  1 */
(PID.TID 0000.0001)                 9.743900000000000E+04,      /* K =  2 */
(PID.TID 0000.0001)                 9.487800000000000E+04,      /* K =  3 */
(PID.TID 0000.0001)                 9.125700000000000E+04,      /* K =  4 */
(PID.TID 0000.0001)                 8.613600000000000E+04,      /* K =  5 */
(PID.TID 0000.0001)                 7.923600000000000E+04,      /* K =  6 */
(PID.TID 0000.0001)                 7.078600000000000E+04,      /* K =  7 */
(PID.TID 0000.0001)                 6.153600000000000E+04,      /* K =  8 */
(PID.TID 0000.0001)                 5.219600000000000E+04,      /* K =  9 */
(PID.TID 0000.0001)                 4.335600000000000E+04,      /* K = 10 */
(PID.TID 0000.0001)                 3.566600000000000E+04,      /* K = 11 */
(PID.TID 0000.0001)                 2.927600000000000E+04,      /* K = 12 */
(PID.TID 0000.0001)                 2.396600000000000E+04,      /* K = 13 */
(PID.TID 0000.0001)                 1.955400000000000E+04,      /* K = 14 */
(PID.TID 0000.0001)                 1.588800000000000E+04,      /* K = 15 */
(PID.TID 0000.0001)                 1.284100000000000E+04,      /* K = 16 */
(PID.TID 0000.0001)                 1.030900000000000E+04,      /* K = 17 */
(PID.TID 0000.0001)                 8.205000000000000E+03,      /* K = 18 */
(PID.TID 0000.0001)                 6.457000000000000E+03,      /* K = 19 */
(PID.TID 0000.0001)                 5.005000000000000E+03,      /* K = 20 */
(PID.TID 0000.0001)                 3.798000000000000E+03,      /* K = 21 */
(PID.TID 0000.0001)                 2.795000000000000E+03,      /* K = 22 */
(PID.TID 0000.0001)                 1.962000000000000E+03,      /* K = 23 */
(PID.TID 0000.0001)                 1.270000000000000E+03,      /* K = 24 */
(PID.TID 0000.0001)                 6.950000000000000E+02,      /* K = 25 */
(PID.TID 0000.0001)                 2.170000000000000E+02       /* K = 26 */
(PID.TID 0000.0001)     ;
(PID.TID 0000.0001) rF =   /* W-Interf. R coordinate (  units of r ) */
(PID.TID 0000.0001)                 1.000000000000000E+05,      /* K =  1 */
(PID.TID 0000.0001)                 9.850000000000000E+04,      /* K =  2 */
(PID.TID 0000.0001)                 9.637800000000000E+04,      /* K =  3 */
(PID.TID 0000.0001)                 9.337800000000000E+04,      /* K =  4 */
(PID.TID 0000.0001)                 8.913600000000000E+04,      /* K =  5 */
(PID.TID 0000.0001)                 8.313600000000000E+04,      /* K =  6 */
(PID.TID 0000.0001)                 7.533600000000000E+04,      /* K =  7 */
(PID.TID 0000.0001)                 6.623600000000000E+04,      /* K =  8 */
(PID.TID 0000.0001)                 5.683600000000000E+04,      /* K =  9 */
(PID.TID 0000.0001)                 4.755600000000000E+04,      /* K = 10 */
(PID.TID 0000.0001)                 3.915600000000000E+04,      /* K = 11 */
(PID.TID 0000.0001)                 3.217600000000000E+04,      /* K = 12 */
(PID.TID 0000.0001)                 2.637600000000000E+04,      /* K = 13 */
(PID.TID 0000.0001)                 2.155600000000000E+04,      /* K = 14 */
(PID.TID 0000.0001)                 1.755200000000000E+04,      /* K = 15 */
(PID.TID 0000.0001)                 1.422400000000000E+04,      /* K = 16 */
(PID.TID 0000.0001)                 1.145800000000000E+04,      /* K = 17 */
(PID.TID 0000.0001)                 9.160000000000000E+03,      /* K = 18 */
(PID.TID 0000.0001)                 7.250000000000000E+03,      /* K = 19 */
(PID.TID 0000.0001)                 5.664000000000000E+03,      /* K = 20 */
(PID.TID 0000.0001)                 4.346000000000000E+03,      /* K = 21 */
(PID.TID 0000.0001)                 3.250000000000000E+03,      /* K = 22 */
(PID.TID 0000.0001)                 2.340000000000000E+03,      /* K = 23 */
(PID.TID 0000.0001)                 1.584000000000000E+03,      /* K = 24 */
(PID.TID 0000.0001)                 9.560000000000000E+02,      /* K = 25 */
(PID.TID 0000.0001)                 4.340000000000000E+02,      /* K = 26 */
(PID.TID 0000.0001)                 0.000000000000000E+00       /* K = 27 */
(PID.TID 0000.0001)     ;
(PID.TID 0000.0001) deepFacC = /* deep-model grid factor @ cell-Center (-) */
(PID.TID 0000.0001)    26 @  1.000000000000000E+00              /* K =  1: 26 */
(PID.TID 0000.0001)     ;
(PID.TID 0000.0001) deepFacF = /* deep-model grid factor @ W-Interface (-) */
(PID.TID 0000.0001)    27 @  1.000000000000000E+00              /* K =  1: 27 */
(PID.TID 0000.0001)     ;
(PID.TID 0000.0001) rVel2wUnit = /* convert units: rVel -> wSpeed (=1 if z-coord)*/
(PID.TID 0000.0001)                 8.643418775510203E-02,      /* K =  1 */
(PID.TID 0000.0001)                 8.738714281594749E-02,      /* K =  2 */
(PID.TID 0000.0001)                 8.880228539413697E-02,      /* K =  3 */
(PID.TID 0000.0001)                 9.089242929019774E-02,      /* K =  4 */
(PID.TID 0000.0001)                 9.405693947589525E-02,      /* K =  5 */
(PID.TID 0000.0001)                 9.902423118195600E-02,      /* K =  6 */
(PID.TID 0000.0001)                 1.064768002018922E-01,      /* K =  7 */
(PID.TID 0000.0001)                 1.170463961122242E-01,      /* K =  8 */
(PID.TID 0000.0001)                 1.310066026003325E-01,      /* K =  9 */
(PID.TID 0000.0001)                 1.493938920168942E-01,      /* K = 10 */
(PID.TID 0000.0001)                 1.725289602831169E-01,      /* K = 11 */
(PID.TID 0000.0001)                 2.002474459407474E-01,      /* K = 12 */
(PID.TID 0000.0001)                 2.343614310665001E-01,      /* K = 13 */
(PID.TID 0000.0001)                 2.776669889631084E-01,      /* K = 14 */
(PID.TID 0000.0001)                 3.350138715309565E-01,      /* K = 15 */
(PID.TID 0000.0001)                 4.115302688812186E-01,      /* K = 16 */
(PID.TID 0000.0001)                 5.108941627115936E-01,      /* K = 17 */
(PID.TID 0000.0001)                 6.391247399573892E-01,      /* K = 18 */
(PID.TID 0000.0001)                 8.075182125562436E-01,      /* K = 19 */
(PID.TID 0000.0001)                 1.033823213211920E+00,      /* K = 20 */
(PID.TID 0000.0001)                 1.347773276112891E+00,      /* K = 21 */
(PID.TID 0000.0001)                 1.802919824777024E+00,      /* K = 22 */
(PID.TID 0000.0001)                 2.505981061091403E+00,      /* K = 23 */
(PID.TID 0000.0001)                 3.708894241534945E+00,      /* K = 24 */
(PID.TID 0000.0001)                 6.181002019845741E+00,      /* K = 25 */
(PID.TID 0000.0001)                 1.412649152982495E+01,      /* K = 26 */
(PID.TID 0000.0001)                 1.000000000000000E+00       /* K = 27 */
(PID.TID 0000.0001)     ;
(PID.TID 0000.0001) wUnit2rVel = /* convert units: wSpeed -> rVel (=1 if z-coord)*/
(PID.TID 0000.0001)                 1.156949612152712E+01,      /* K =  1 */
(PID.TID 0000.0001)                 1.144333099556961E+01,      /* K =  2 */
(PID.TID 0000.0001)                 1.126097144416537E+01,      /* K =  3 */
(PID.TID 0000.0001)                 1.100201642545211E+01,      /* K =  4 */
(PID.TID 0000.0001)                 1.063185774034545E+01,      /* K =  5 */
(PID.TID 0000.0001)                 1.009853838867489E+01,      /* K =  6 */
(PID.TID 0000.0001)                 9.391717238909184E+00,      /* K =  7 */
(PID.TID 0000.0001)                 8.543620591625897E+00,      /* K =  8 */
(PID.TID 0000.0001)                 7.633203061152140E+00,      /* K =  9 */
(PID.TID 0000.0001)                 6.693714090311771E+00,      /* K = 10 */
(PID.TID 0000.0001)                 5.796128362212453E+00,      /* K = 11 */
(PID.TID 0000.0001)                 4.993821495710346E+00,      /* K = 12 */
(PID.TID 0000.0001)                 4.266913695864273E+00,      /* K = 13 */
(PID.TID 0000.0001)                 3.601436395929884E+00,      /* K = 14 */
(PID.TID 0000.0001)                 2.984951027341554E+00,      /* K = 15 */
(PID.TID 0000.0001)                 2.429954916119751E+00,      /* K = 16 */
(PID.TID 0000.0001)                 1.957352565338495E+00,      /* K = 17 */
(PID.TID 0000.0001)                 1.564639791704309E+00,      /* K = 18 */
(PID.TID 0000.0001)                 1.238362162550421E+00,      /* K = 19 */
(PID.TID 0000.0001)                 9.672833683944502E-01,      /* K = 20 */
(PID.TID 0000.0001)                 7.419645557033876E-01,      /* K = 21 */
(PID.TID 0000.0001)                 5.546558345286792E-01,      /* K = 22 */
(PID.TID 0000.0001)                 3.990453142389196E-01,      /* K = 23 */
(PID.TID 0000.0001)                 2.696221393431119E-01,      /* K = 24 */
(PID.TID 0000.0001)                 1.617860658820747E-01,      /* K = 25 */
(PID.TID 0000.0001)                 7.078898521184275E-02,      /* K = 26 */
(PID.TID 0000.0001)                 1.000000000000000E+00       /* K = 27 */
(PID.TID 0000.0001)     ;
(PID.TID 0000.0001) dBdrRef = /* Vertical grad. of reference buoyancy [(m/s/r)^2] */
(PID.TID 0000.0001)                 0.000000000000000E+00,      /* K =  1 */
(PID.TID 0000.0001)                 1.604020822972663E-07,      /* K =  2 */
(PID.TID 0000.0001)                 2.305314669656972E-07,      /* K =  3 */
(PID.TID 0000.0001)                 1.669031556286163E-07,      /* K =  4 */
(PID.TID 0000.0001)                 2.443043384715506E-07,      /* K =  5 */
(PID.TID 0000.0001)                 2.860066576999341E-07,      /* K =  6 */
(PID.TID 0000.0001)                 2.921875837384485E-07,      /* K =  7 */
(PID.TID 0000.0001)                 3.755074484194814E-07,      /* K =  8 */
(PID.TID 0000.0001)                 5.066322497832424E-07,      /* K =  9 */
(PID.TID 0000.0001)                 7.166887707647536E-07,      /* K = 10 */
(PID.TID 0000.0001)                 1.306741577704211E-06,      /* K = 11 */
(PID.TID 0000.0001)                 3.518055907999274E-06,      /* K = 12 */
(PID.TID 0000.0001)                 8.225060034419378E-06,      /* K = 13 */
(PID.TID 0000.0001)                 1.937860091746120E-05,      /* K = 14 */
(PID.TID 0000.0001)                 4.456361509018920E-05,      /* K = 15 */
(PID.TID 0000.0001)                 8.004656631735151E-05,      /* K = 16 */
(PID.TID 0000.0001)                 1.235417107379588E-04,      /* K = 17 */
(PID.TID 0000.0001)                 1.931534961382523E-04,      /* K = 18 */
(PID.TID 0000.0001)                 3.077255424266486E-04,      /* K = 19 */
(PID.TID 0000.0001)                 5.060735888621455E-04,      /* K = 20 */
(PID.TID 0000.0001)                 8.577447781720473E-04,      /* K = 21 */
(PID.TID 0000.0001)                 1.533315559624654E-03,      /* K = 22 */
(PID.TID 0000.0001)                 2.960876155175189E-03,      /* K = 23 */
(PID.TID 0000.0001)                 6.490610232038748E-03,      /* K = 24 */
(PID.TID 0000.0001)                 1.807701670627409E-02,      /* K = 25 */
(PID.TID 0000.0001)                 9.817506062475811E-02       /* K = 26 */
(PID.TID 0000.0001)     ;
(PID.TID 0000.0001) rotateGrid = /* use rotated grid ( True/False ) */
(PID.TID 0000.0001)                   F
(PID.TID 0000.0001)     ;
(PID.TID 0000.0001) phiEuler = /* Euler angle, rotation about original z-coordinate [rad] */
(PID.TID 0000.0001)                 0.000000000000000E+00
(PID.TID 0000.0001)     ;
(PID.TID 0000.0001) thetaEuler = /* Euler angle, rotation about new x-coordinate [rad] */
(PID.TID 0000.0001)                 0.000000000000000E+00
(PID.TID 0000.0001)     ;
(PID.TID 0000.0001) psiEuler = /* Euler angle, rotation about new z-coordinate [rad] */
(PID.TID 0000.0001)                 0.000000000000000E+00
(PID.TID 0000.0001)     ;
(PID.TID 0000.0001) dxF =  /* dxF(:,1,:,1) ( units: m ) */
(PID.TID 0000.0001)                 1.202082051331828E+05,      /* I =  1 */
(PID.TID 0000.0001)                 1.563594089971120E+05,      /* I =  2 */
(PID.TID 0000.0001)                 1.835530058121492E+05,      /* I =  3 */
(PID.TID 0000.0001)      . . .
(PID.TID 0000.0001)                 2.978501920522794E+05,      /* I = 46 */
(PID.TID 0000.0001)                 3.000967749619962E+05,      /* I = 47 */
(PID.TID 0000.0001)                 3.012190981969055E+05,      /* I = 48 */
(PID.TID 0000.0001)                 3.012190981969055E+05,      /* I = 49 */
(PID.TID 0000.0001)                 3.000967749619962E+05,      /* I = 50 */
(PID.TID 0000.0001)                 2.978501920522794E+05,      /* I = 51 */
(PID.TID 0000.0001)      . . .
(PID.TID 0000.0001)                 1.835530058121492E+05,      /* I = 94 */
(PID.TID 0000.0001)                 1.563594089971120E+05,      /* I = 95 */
(PID.TID 0000.0001)                 1.202082051331828E+05,      /* I = 96 */
(PID.TID 0000.0001)                 1.202082051331828E+05,      /* I = 97 */
(PID.TID 0000.0001)                 1.563594089971120E+05,      /* I = 98 */
(PID.TID 0000.0001)                 1.835530058121492E+05,      /* I = 99 */
(PID.TID 0000.0001)      . . .
(PID.TID 0000.0001)                 2.978501920522794E+05,      /* I =142 */
(PID.TID 0000.0001)                 3.000967749619962E+05,      /* I =143 */
(PID.TID 0000.0001)                 3.012190981969055E+05,      /* I =144 */
(PID.TID 0000.0001)                 3.012190981969055E+05,      /* I =145 */
(PID.TID 0000.0001)                 3.000967749619962E+05,      /* I =146 */
(PID.TID 0000.0001)                 2.978501920522794E+05,      /* I =147 */
(PID.TID 0000.0001)      . . .
(PID.TID 0000.0001)                 1.835530058121492E+05,      /* I =190 */
(PID.TID 0000.0001)                 1.563594089971120E+05,      /* I =191 */
(PID.TID 0000.0001)                 1.202082051331828E+05       /* I =192 */
(PID.TID 0000.0001)     ;
(PID.TID 0000.0001) dxF =  /* dxF(1,:,1,:) ( units: m ) */
(PID.TID 0000.0001)                 1.202082051331828E+05,      /* J =  1 */
(PID.TID 0000.0001)                 1.572908084538706E+05,      /* J =  2 */
(PID.TID 0000.0001)                 1.840412227747703E+05,      /* J =  3 */
(PID.TID 0000.0001)                 2.048868197919576E+05,      /* J =  4 */
(PID.TID 0000.0001)                 2.220405216043041E+05,      /* J =  5 */
(PID.TID 0000.0001)                 2.365892017348392E+05,      /* J =  6 */
(PID.TID 0000.0001)                 2.491250781852558E+05,      /* J =  7 */
(PID.TID 0000.0001)                 2.599949918261881E+05,      /* J =  8 */
(PID.TID 0000.0001)                 2.694110134598581E+05,      /* J =  9 */
(PID.TID 0000.0001)                 2.775055554645015E+05,      /* J = 10 */
(PID.TID 0000.0001)                 2.843615645344775E+05,      /* J = 11 */
(PID.TID 0000.0001)                 2.900303768613599E+05,      /* J = 12 */
(PID.TID 0000.0001)                 2.945429307892709E+05,      /* J = 13 */
(PID.TID 0000.0001)                 2.979171143158405E+05,      /* J = 14 */
(PID.TID 0000.0001)                 3.001626787528886E+05,      /* J = 15 */
(PID.TID 0000.0001)     2 @  3.012844832048790E+05,             /* J = 16: 17 */
(PID.TID 0000.0001)                 3.001626787528886E+05,      /* J = 18 */
(PID.TID 0000.0001)                 2.979171143158405E+05,      /* J = 19 */
(PID.TID 0000.0001)                 2.945429307892709E+05,      /* J = 20 */
(PID.TID 0000.0001)                 2.900303768613599E+05,      /* J = 21 */
(PID.TID 0000.0001)                 2.843615645344775E+05,      /* J = 22 */
(PID.TID 0000.0001)                 2.775055554645015E+05,      /* J = 23 */
(PID.TID 0000.0001)                 2.694110134598581E+05,      /* J = 24 */
(PID.TID 0000.0001)                 2.599949918261881E+05,      /* J = 25 */
(PID.TID 0000.0001)                 2.491250781852558E+05,      /* J = 26 */
(PID.TID 0000.0001)                 2.365892017348392E+05,      /* J = 27 */
(PID.TID 0000.0001)                 2.220405216043041E+05,      /* J = 28 */
(PID.TID 0000.0001)                 2.048868197919576E+05,      /* J = 29 */
(PID.TID 0000.0001)                 1.840412227747703E+05,      /* J = 30 */
(PID.TID 0000.0001)                 1.572908084538706E+05,      /* J = 31 */
(PID.TID 0000.0001)                 1.202082051331828E+05       /* J = 32 */
(PID.TID 0000.0001)     ;
(PID.TID 0000.0001) dyF =  /* dyF(:,1,:,1) ( units: m ) */
(PID.TID 0000.0001)                 1.202082051331828E+05,      /* I =  1 */
(PID.TID 0000.0001)                 1.572908084538706E+05,      /* I =  2 */
(PID.TID 0000.0001)                 1.840412227747703E+05,      /* I =  3 */
(PID.TID 0000.0001)      . . .
(PID.TID 0000.0001)                 2.979171143158405E+05,      /* I = 46 */
(PID.TID 0000.0001)                 3.001626787528886E+05,      /* I = 47 */
(PID.TID 0000.0001)                 3.012844832048790E+05,      /* I = 48 */
(PID.TID 0000.0001)                 3.012844832048790E+05,      /* I = 49 */
(PID.TID 0000.0001)                 3.001626787528886E+05,      /* I = 50 */
(PID.TID 0000.0001)                 2.979171143158405E+05,      /* I = 51 */
(PID.TID 0000.0001)      . . .
(PID.TID 0000.0001)                 1.840412227747703E+05,      /* I = 94 */
(PID.TID 0000.0001)                 1.572908084538706E+05,      /* I = 95 */
(PID.TID 0000.0001)                 1.202082051331828E+05,      /* I = 96 */
(PID.TID 0000.0001)                 1.202082051331828E+05,      /* I = 97 */
(PID.TID 0000.0001)                 1.572908084538706E+05,      /* I = 98 */
(PID.TID 0000.0001)                 1.840412227747703E+05,      /* I = 99 */
(PID.TID 0000.0001)      . . .
(PID.TID 0000.0001)                 2.979171143158405E+05,      /* I =142 */
(PID.TID 0000.0001)                 3.001626787528886E+05,      /* I =143 */
(PID.TID 0000.0001)                 3.012844832048790E+05,      /* I =144 */
(PID.TID 0000.0001)                 3.012844832048790E+05,      /* I =145 */
(PID.TID 0000.0001)                 3.001626787528886E+05,      /* I =146 */
(PID.TID 0000.0001)                 2.979171143158405E+05,      /* I =147 */
(PID.TID 0000.0001)      . . .
(PID.TID 0000.0001)                 1.840412227747703E+05,      /* I =190 */
(PID.TID 0000.0001)                 1.572908084538706E+05,      /* I =191 */
(PID.TID 0000.0001)                 1.202082051331828E+05       /* I =192 */
(PID.TID 0000.0001)     ;
(PID.TID 0000.0001) dyF =  /* dyF(1,:,1,:) ( units: m ) */
(PID.TID 0000.0001)                 1.202082051331828E+05,      /* J =  1 */
(PID.TID 0000.0001)                 1.563594089971120E+05,      /* J =  2 */
(PID.TID 0000.0001)                 1.835530058121492E+05,      /* J =  3 */
(PID.TID 0000.0001)                 2.045883481718707E+05,      /* J =  4 */
(PID.TID 0000.0001)                 2.218350349844185E+05,      /* J =  5 */
(PID.TID 0000.0001)                 2.364352994647058E+05,      /* J =  6 */
(PID.TID 0000.0001)                 2.490022710862746E+05,      /* J =  7 */
(PID.TID 0000.0001)                 2.598919724358304E+05,      /* J =  8 */
(PID.TID 0000.0001)                 2.693210245495156E+05,      /* J =  9 */
(PID.TID 0000.0001)                 2.774243179696503E+05,      /* J = 10 */
(PID.TID 0000.0001)                 2.842862532064524E+05,      /* J = 11 */
(PID.TID 0000.0001)                 2.899590699694043E+05,      /* J = 12 */
(PID.TID 0000.0001)                 2.944742915095688E+05,      /* J = 13 */
(PID.TID 0000.0001)                 2.978501920522794E+05,      /* J = 14 */
(PID.TID 0000.0001)                 3.000967749619962E+05,      /* J = 15 */
(PID.TID 0000.0001)     2 @  3.012190981969055E+05,             /* J = 16: 17 */
(PID.TID 0000.0001)                 3.000967749619962E+05,      /* J = 18 */
(PID.TID 0000.0001)                 2.978501920522794E+05,      /* J = 19 */
(PID.TID 0000.0001)                 2.944742915095688E+05,      /* J = 20 */
(PID.TID 0000.0001)                 2.899590699694043E+05,      /* J = 21 */
(PID.TID 0000.0001)                 2.842862532064524E+05,      /* J = 22 */
(PID.TID 0000.0001)                 2.774243179696503E+05,      /* J = 23 */
(PID.TID 0000.0001)                 2.693210245495156E+05,      /* J = 24 */
(PID.TID 0000.0001)                 2.598919724358304E+05,      /* J = 25 */
(PID.TID 0000.0001)                 2.490022710862746E+05,      /* J = 26 */
(PID.TID 0000.0001)                 2.364352994647058E+05,      /* J = 27 */
(PID.TID 0000.0001)                 2.218350349844185E+05,      /* J = 28 */
(PID.TID 0000.0001)                 2.045883481718707E+05,      /* J = 29 */
(PID.TID 0000.0001)                 1.835530058121492E+05,      /* J = 30 */
(PID.TID 0000.0001)                 1.563594089971120E+05,      /* J = 31 */
(PID.TID 0000.0001)                 1.202082051331828E+05       /* J = 32 */
(PID.TID 0000.0001)     ;
(PID.TID 0000.0001) dxG =  /* dxG(:,1,:,1) ( units: m ) */
(PID.TID 0000.0001)                 1.009837800879055E+05,      /* I =  1 */
(PID.TID 0000.0001)                 1.534505834330338E+05,      /* I =  2 */
(PID.TID 0000.0001)                 1.823321598773926E+05,      /* I =  3 */
(PID.TID 0000.0001)      . . .
(PID.TID 0000.0001)                 2.977867909042096E+05,      /* I = 46 */
(PID.TID 0000.0001)                 3.000380090330854E+05,      /* I = 47 */
(PID.TID 0000.0001)                 3.011625828699101E+05,      /* I = 48 */
(PID.TID 0000.0001)                 3.011625828699101E+05,      /* I = 49 */
(PID.TID 0000.0001)                 3.000380090330854E+05,      /* I = 50 */
(PID.TID 0000.0001)                 2.977867909042096E+05,      /* I = 51 */
(PID.TID 0000.0001)      . . .
(PID.TID 0000.0001)                 1.823321598773926E+05,      /* I = 94 */
(PID.TID 0000.0001)                 1.534505834330338E+05,      /* I = 95 */
(PID.TID 0000.0001)                 1.009837800879055E+05,      /* I = 96 */
(PID.TID 0000.0001)                 1.009837800879055E+05,      /* I = 97 */
(PID.TID 0000.0001)                 1.534505834330338E+05,      /* I = 98 */
(PID.TID 0000.0001)                 1.823321598773926E+05,      /* I = 99 */
(PID.TID 0000.0001)      . . .
(PID.TID 0000.0001)                 2.977867909042096E+05,      /* I =142 */
(PID.TID 0000.0001)                 3.000380090330854E+05,      /* I =143 */
(PID.TID 0000.0001)                 3.011625828699101E+05,      /* I =144 */
(PID.TID 0000.0001)                 3.011625828699101E+05,      /* I =145 */
(PID.TID 0000.0001)                 3.000380090330854E+05,      /* I =146 */
(PID.TID 0000.0001)                 2.977867909042096E+05,      /* I =147 */
(PID.TID 0000.0001)      . . .
(PID.TID 0000.0001)                 1.823321598773926E+05,      /* I =190 */
(PID.TID 0000.0001)                 1.534505834330338E+05,      /* I =191 */
(PID.TID 0000.0001)                 1.009837800879055E+05       /* I =192 */
(PID.TID 0000.0001)     ;
(PID.TID 0000.0001) dxG =  /* dxG(1,:,1,:) ( units: m ) */
(PID.TID 0000.0001)                 1.009837800879055E+05,      /* J =  1 */
(PID.TID 0000.0001)                 1.403701524205398E+05,      /* J =  2 */
(PID.TID 0000.0001)                 1.716197227386011E+05,      /* J =  3 */
(PID.TID 0000.0001)                 1.950254041626018E+05,      /* J =  4 */
(PID.TID 0000.0001)                 2.138410773065497E+05,      /* J =  5 */
(PID.TID 0000.0001)                 2.295958105911512E+05,      /* J =  6 */
(PID.TID 0000.0001)                 2.430829951739083E+05,      /* J =  7 */
(PID.TID 0000.0001)                 2.547526806712889E+05,      /* J =  8 */
(PID.TID 0000.0001)                 2.648750305193301E+05,      /* J =  9 */
(PID.TID 0000.0001)                 2.736173771018112E+05,      /* J = 10 */
(PID.TID 0000.0001)                 2.810845823202647E+05,      /* J = 11 */
(PID.TID 0000.0001)                 2.873420591008078E+05,      /* J = 12 */
(PID.TID 0000.0001)                 2.924298293668651E+05,      /* J = 13 */
(PID.TID 0000.0001)                 2.963715635865306E+05,      /* J = 14 */
(PID.TID 0000.0001)                 2.991805843171258E+05,      /* J = 15 */
(PID.TID 0000.0001)                 3.008638765647886E+05,      /* J = 16 */
(PID.TID 0000.0001)                 3.014246674484008E+05,      /* J = 17 */
(PID.TID 0000.0001)                 3.008638765647886E+05,      /* J = 18 */
(PID.TID 0000.0001)                 2.991805843171258E+05,      /* J = 19 */
(PID.TID 0000.0001)                 2.963715635865306E+05,      /* J = 20 */
(PID.TID 0000.0001)                 2.924298293668651E+05,      /* J = 21 */
(PID.TID 0000.0001)                 2.873420591008078E+05,      /* J = 22 */
(PID.TID 0000.0001)                 2.810845823202647E+05,      /* J = 23 */
(PID.TID 0000.0001)                 2.736173771018112E+05,      /* J = 24 */
(PID.TID 0000.0001)                 2.648750305193301E+05,      /* J = 25 */
(PID.TID 0000.0001)                 2.547526806712889E+05,      /* J = 26 */
(PID.TID 0000.0001)                 2.430829951739083E+05,      /* J = 27 */
(PID.TID 0000.0001)                 2.295958105911512E+05,      /* J = 28 */
(PID.TID 0000.0001)                 2.138410773065497E+05,      /* J = 29 */
(PID.TID 0000.0001)                 1.950254041626018E+05,      /* J = 30 */
(PID.TID 0000.0001)                 1.716197227386011E+05,      /* J = 31 */
(PID.TID 0000.0001)                 1.403701524205398E+05       /* J = 32 */
(PID.TID 0000.0001)     ;
(PID.TID 0000.0001) dyG =  /* dyG(:,1,:,1) ( units: m ) */
(PID.TID 0000.0001)                 1.009837800879055E+05,      /* I =  1 */
(PID.TID 0000.0001)                 1.403701524205398E+05,      /* I =  2 */
(PID.TID 0000.0001)                 1.716197227386011E+05,      /* I =  3 */
(PID.TID 0000.0001)      . . .
(PID.TID 0000.0001)                 2.963715635865306E+05,      /* I = 46 */
(PID.TID 0000.0001)                 2.991805843171258E+05,      /* I = 47 */
(PID.TID 0000.0001)                 3.008638765647886E+05,      /* I = 48 */
(PID.TID 0000.0001)                 3.014246674484008E+05,      /* I = 49 */
(PID.TID 0000.0001)                 3.008638765647886E+05,      /* I = 50 */
(PID.TID 0000.0001)                 2.991805843171258E+05,      /* I = 51 */
(PID.TID 0000.0001)      . . .
(PID.TID 0000.0001)                 1.950254041626018E+05,      /* I = 94 */
(PID.TID 0000.0001)                 1.716197227386011E+05,      /* I = 95 */
(PID.TID 0000.0001)                 1.403701524205398E+05,      /* I = 96 */
(PID.TID 0000.0001)                 1.009837800879055E+05,      /* I = 97 */
(PID.TID 0000.0001)                 1.403701524205398E+05,      /* I = 98 */
(PID.TID 0000.0001)                 1.716197227386011E+05,      /* I = 99 */
(PID.TID 0000.0001)      . . .
(PID.TID 0000.0001)                 2.963715635865306E+05,      /* I =142 */
(PID.TID 0000.0001)                 2.991805843171258E+05,      /* I =143 */
(PID.TID 0000.0001)                 3.008638765647886E+05,      /* I =144 */
(PID.TID 0000.0001)                 3.014246674484008E+05,      /* I =145 */
(PID.TID 0000.0001)                 3.008638765647886E+05,      /* I =146 */
(PID.TID 0000.0001)                 2.991805843171258E+05,      /* I =147 */
(PID.TID 0000.0001)      . . .
(PID.TID 0000.0001)                 1.950254041626018E+05,      /* I =190 */
(PID.TID 0000.0001)                 1.716197227386011E+05,      /* I =191 */
(PID.TID 0000.0001)                 1.403701524205398E+05       /* I =192 */
(PID.TID 0000.0001)     ;
(PID.TID 0000.0001) dyG =  /* dyG(1,:,1,:) ( units: m ) */
(PID.TID 0000.0001)                 1.009837800879055E+05,      /* J =  1 */
(PID.TID 0000.0001)                 1.534505834330338E+05,      /* J =  2 */
(PID.TID 0000.0001)                 1.823321598773926E+05,      /* J =  3 */
(PID.TID 0000.0001)                 2.038999045536999E+05,      /* J =  4 */
(PID.TID 0000.0001)                 2.213884732245467E+05,      /* J =  5 */
(PID.TID 0000.0001)                 2.361211699596122E+05,      /* J =  6 */
(PID.TID 0000.0001)                 2.487693460283865E+05,      /* J =  7 */
(PID.TID 0000.0001)                 2.597126963772147E+05,      /* J =  8 */
(PID.TID 0000.0001)                 2.691790288994575E+05,      /* J =  9 */
(PID.TID 0000.0001)                 2.773091043277394E+05,      /* J = 10 */
(PID.TID 0000.0001)                 2.841906470085516E+05,      /* J = 11 */
(PID.TID 0000.0001)                 2.898778860929753E+05,      /* J = 12 */
(PID.TID 0000.0001)                 2.944035815526416E+05,      /* J = 13 */
(PID.TID 0000.0001)                 2.977867909042096E+05,      /* J = 14 */
(PID.TID 0000.0001)                 3.000380090330854E+05,      /* J = 15 */
(PID.TID 0000.0001)     2 @  3.011625828699101E+05,             /* J = 16: 17 */
(PID.TID 0000.0001)                 3.000380090330854E+05,      /* J = 18 */
(PID.TID 0000.0001)                 2.977867909042096E+05,      /* J = 19 */
(PID.TID 0000.0001)                 2.944035815526416E+05,      /* J = 20 */
(PID.TID 0000.0001)                 2.898778860929753E+05,      /* J = 21 */
(PID.TID 0000.0001)                 2.841906470085516E+05,      /* J = 22 */
(PID.TID 0000.0001)                 2.773091043277394E+05,      /* J = 23 */
(PID.TID 0000.0001)                 2.691790288994575E+05,      /* J = 24 */
(PID.TID 0000.0001)                 2.597126963772147E+05,      /* J = 25 */
(PID.TID 0000.0001)                 2.487693460283865E+05,      /* J = 26 */
(PID.TID 0000.0001)                 2.361211699596122E+05,      /* J = 27 */
(PID.TID 0000.0001)                 2.213884732245467E+05,      /* J = 28 */
(PID.TID 0000.0001)                 2.038999045536999E+05,      /* J = 29 */
(PID.TID 0000.0001)                 1.823321598773926E+05,      /* J = 30 */
(PID.TID 0000.0001)                 1.534505834330338E+05,      /* J = 31 */
(PID.TID 0000.0001)                 1.009837800879055E+05       /* J = 32 */
(PID.TID 0000.0001)     ;
(PID.TID 0000.0001) dxC =  /* dxC(:,1,:,1) ( units: m ) */
(PID.TID 0000.0001)                 1.135373000692312E+05,      /* I =  1 */
(PID.TID 0000.0001)                 1.391343389937106E+05,      /* I =  2 */
(PID.TID 0000.0001)                 1.709574999026266E+05,      /* I =  3 */
(PID.TID 0000.0001)      . . .
(PID.TID 0000.0001)                 2.963038832565530E+05,      /* I = 46 */
(PID.TID 0000.0001)                 2.991142470004740E+05,      /* I = 47 */
(PID.TID 0000.0001)                 3.007982711627968E+05,      /* I = 48 */
(PID.TID 0000.0001)                 3.013593857228136E+05,      /* I = 49 */
(PID.TID 0000.0001)                 3.007982711627968E+05,      /* I = 50 */
(PID.TID 0000.0001)                 2.991142470004740E+05,      /* I = 51 */
(PID.TID 0000.0001)      . . .
(PID.TID 0000.0001)                 1.946503699269892E+05,      /* I = 94 */
(PID.TID 0000.0001)                 1.709574999026266E+05,      /* I = 95 */
(PID.TID 0000.0001)                 1.391343389937106E+05,      /* I = 96 */
(PID.TID 0000.0001)                 1.135373000692312E+05,      /* I = 97 */
(PID.TID 0000.0001)                 1.391343389937106E+05,      /* I = 98 */
(PID.TID 0000.0001)                 1.709574999026266E+05,      /* I = 99 */
(PID.TID 0000.0001)      . . .
(PID.TID 0000.0001)                 2.963038832565530E+05,      /* I =142 */
(PID.TID 0000.0001)                 2.991142470004740E+05,      /* I =143 */
(PID.TID 0000.0001)                 3.007982711627968E+05,      /* I =144 */
(PID.TID 0000.0001)                 3.013593857228136E+05,      /* I =145 */
(PID.TID 0000.0001)                 3.007982711627968E+05,      /* I =146 */
(PID.TID 0000.0001)                 2.991142470004740E+05,      /* I =147 */
(PID.TID 0000.0001)      . . .
(PID.TID 0000.0001)                 1.946503699269892E+05,      /* I =190 */
(PID.TID 0000.0001)                 1.709574999026266E+05,      /* I =191 */
(PID.TID 0000.0001)                 1.391343389937106E+05       /* I =192 */
(PID.TID 0000.0001)     ;
(PID.TID 0000.0001) dxC =  /* dxC(1,:,1,:) ( units: m ) */
(PID.TID 0000.0001)                 1.135373000692312E+05,      /* J =  1 */
(PID.TID 0000.0001)                 1.549545757850771E+05,      /* J =  2 */
(PID.TID 0000.0001)                 1.829777599966776E+05,      /* J =  3 */
(PID.TID 0000.0001)                 2.042717761866506E+05,      /* J =  4 */
(PID.TID 0000.0001)                 2.216367828252819E+05,      /* J =  5 */
(PID.TID 0000.0001)                 2.363029564123586E+05,      /* J =  6 */
(PID.TID 0000.0001)                 2.489113743322025E+05,      /* J =  7 */
(PID.TID 0000.0001)                 2.598293319150326E+05,      /* J =  8 */
(PID.TID 0000.0001)                 2.692787333338535E+05,      /* J =  9 */
(PID.TID 0000.0001)                 2.773972106720365E+05,      /* J = 10 */
(PID.TID 0000.0001)                 2.842706922224557E+05,      /* J = 11 */
(PID.TID 0000.0001)                 2.899523122489403E+05,      /* J = 12 */
(PID.TID 0000.0001)                 2.944741346384699E+05,      /* J = 13 */
(PID.TID 0000.0001)                 2.978547649292580E+05,      /* J = 14 */
(PID.TID 0000.0001)                 3.001044073506459E+05,      /* J = 15 */
(PID.TID 0000.0001)     2 @  3.012281885409289E+05,             /* J = 16: 17 */
(PID.TID 0000.0001)                 3.001044073506459E+05,      /* J = 18 */
(PID.TID 0000.0001)                 2.978547649292580E+05,      /* J = 19 */
(PID.TID 0000.0001)                 2.944741346384699E+05,      /* J = 20 */
(PID.TID 0000.0001)                 2.899523122489403E+05,      /* J = 21 */
(PID.TID 0000.0001)                 2.842706922224557E+05,      /* J = 22 */
(PID.TID 0000.0001)                 2.773972106720365E+05,      /* J = 23 */
(PID.TID 0000.0001)                 2.692787333338535E+05,      /* J = 24 */
(PID.TID 0000.0001)                 2.598293319150326E+05,      /* J = 25 */
(PID.TID 0000.0001)                 2.489113743322025E+05,      /* J = 26 */
(PID.TID 0000.0001)                 2.363029564123586E+05,      /* J = 27 */
(PID.TID 0000.0001)                 2.216367828252819E+05,      /* J = 28 */
(PID.TID 0000.0001)                 2.042717761866506E+05,      /* J = 29 */
(PID.TID 0000.0001)                 1.829777599966776E+05,      /* J = 30 */
(PID.TID 0000.0001)                 1.549545757850771E+05,      /* J = 31 */
(PID.TID 0000.0001)                 1.135373000692312E+05       /* J = 32 */
(PID.TID 0000.0001)     ;
(PID.TID 0000.0001) dyC =  /* dyC(:,1,:,1) ( units: m ) */
(PID.TID 0000.0001)                 1.135373000692312E+05,      /* I =  1 */
(PID.TID 0000.0001)                 1.549545757850771E+05,      /* I =  2 */
(PID.TID 0000.0001)                 1.829777599966776E+05,      /* I =  3 */
(PID.TID 0000.0001)      . . .
(PID.TID 0000.0001)                 2.978547649292580E+05,      /* I = 46 */
(PID.TID 0000.0001)                 3.001044073506459E+05,      /* I = 47 */
(PID.TID 0000.0001)                 3.012281885409289E+05,      /* I = 48 */
(PID.TID 0000.0001)                 3.012281885409289E+05,      /* I = 49 */
(PID.TID 0000.0001)                 3.001044073506459E+05,      /* I = 50 */
(PID.TID 0000.0001)                 2.978547649292580E+05,      /* I = 51 */
(PID.TID 0000.0001)      . . .
(PID.TID 0000.0001)                 1.829777599966776E+05,      /* I = 94 */
(PID.TID 0000.0001)                 1.549545757850771E+05,      /* I = 95 */
(PID.TID 0000.0001)                 1.135373000692312E+05,      /* I = 96 */
(PID.TID 0000.0001)                 1.135373000692312E+05,      /* I = 97 */
(PID.TID 0000.0001)                 1.549545757850771E+05,      /* I = 98 */
(PID.TID 0000.0001)                 1.829777599966776E+05,      /* I = 99 */
(PID.TID 0000.0001)      . . .
(PID.TID 0000.0001)                 2.978547649292580E+05,      /* I =142 */
(PID.TID 0000.0001)                 3.001044073506459E+05,      /* I =143 */
(PID.TID 0000.0001)                 3.012281885409289E+05,      /* I =144 */
(PID.TID 0000.0001)                 3.012281885409289E+05,      /* I =145 */
(PID.TID 0000.0001)                 3.001044073506459E+05,      /* I =146 */
(PID.TID 0000.0001)                 2.978547649292580E+05,      /* I =147 */
(PID.TID 0000.0001)      . . .
(PID.TID 0000.0001)                 1.829777599966776E+05,      /* I =190 */
(PID.TID 0000.0001)                 1.549545757850771E+05,      /* I =191 */
(PID.TID 0000.0001)                 1.135373000692312E+05       /* I =192 */
(PID.TID 0000.0001)     ;
(PID.TID 0000.0001) dyC =  /* dyC(1,:,1,:) ( units: m ) */
(PID.TID 0000.0001)                 1.135373000692312E+05,      /* J =  1 */
(PID.TID 0000.0001)                 1.391343389937106E+05,      /* J =  2 */
(PID.TID 0000.0001)                 1.709574999026266E+05,      /* J =  3 */
(PID.TID 0000.0001)                 1.946503699269892E+05,      /* J =  4 */
(PID.TID 0000.0001)                 2.135964483342134E+05,      /* J =  5 */
(PID.TID 0000.0001)                 2.294195678257306E+05,      /* J =  6 */
(PID.TID 0000.0001)                 2.429464709770498E+05,      /* J =  7 */
(PID.TID 0000.0001)                 2.546408290696998E+05,      /* J =  8 */
(PID.TID 0000.0001)                 2.647791839299727E+05,      /* J =  9 */
(PID.TID 0000.0001)                 2.735321911346108E+05,      /* J = 10 */
(PID.TID 0000.0001)                 2.810065951609633E+05,      /* J = 11 */
(PID.TID 0000.0001)                 2.872689479506990E+05,      /* J = 12 */
(PID.TID 0000.0001)                 2.923599955312932E+05,      /* J = 13 */
(PID.TID 0000.0001)                 2.963038832565530E+05,      /* J = 14 */
(PID.TID 0000.0001)                 2.991142470004740E+05,      /* J = 15 */
(PID.TID 0000.0001)                 3.007982711627968E+05,      /* J = 16 */
(PID.TID 0000.0001)                 3.013593857228136E+05,      /* J = 17 */
(PID.TID 0000.0001)                 3.007982711627968E+05,      /* J = 18 */
(PID.TID 0000.0001)                 2.991142470004740E+05,      /* J = 19 */
(PID.TID 0000.0001)                 2.963038832565530E+05,      /* J = 20 */
(PID.TID 0000.0001)                 2.923599955312932E+05,      /* J = 21 */
(PID.TID 0000.0001)                 2.872689479506990E+05,      /* J = 22 */
(PID.TID 0000.0001)                 2.810065951609633E+05,      /* J = 23 */
(PID.TID 0000.0001)                 2.735321911346108E+05,      /* J = 24 */
(PID.TID 0000.0001)                 2.647791839299727E+05,      /* J = 25 */
(PID.TID 0000.0001)                 2.546408290696998E+05,      /* J = 26 */
(PID.TID 0000.0001)                 2.429464709770498E+05,      /* J = 27 */
(PID.TID 0000.0001)                 2.294195678257306E+05,      /* J = 28 */
(PID.TID 0000.0001)                 2.135964483342134E+05,      /* J = 29 */
(PID.TID 0000.0001)                 1.946503699269892E+05,      /* J = 30 */
(PID.TID 0000.0001)                 1.709574999026266E+05,      /* J = 31 */
(PID.TID 0000.0001)                 1.391343389937106E+05       /* J = 32 */
(PID.TID 0000.0001)     ;
(PID.TID 0000.0001) dxV =  /* dxV(:,1,:,1) ( units: m ) */
(PID.TID 0000.0001)                 8.015229982413632E+04,      /* I =  1 */
(PID.TID 0000.0001)                 1.333130744933864E+05,      /* I =  2 */
(PID.TID 0000.0001)                 1.691744868129062E+05,      /* I =  3 */
(PID.TID 0000.0001)      . . .
(PID.TID 0000.0001)                 2.962371870847826E+05,      /* I = 46 */
(PID.TID 0000.0001)                 2.990534755671296E+05,      /* I = 47 */
(PID.TID 0000.0001)                 3.007409169495504E+05,      /* I = 48 */
(PID.TID 0000.0001)                 3.013031486919771E+05,      /* I = 49 */
(PID.TID 0000.0001)                 3.007409169495504E+05,      /* I = 50 */
(PID.TID 0000.0001)                 2.990534755671296E+05,      /* I = 51 */
(PID.TID 0000.0001)      . . .
(PID.TID 0000.0001)                 1.937548202849060E+05,      /* I = 94 */
(PID.TID 0000.0001)                 1.691744868129062E+05,      /* I = 95 */
(PID.TID 0000.0001)                 1.333130744933864E+05,      /* I = 96 */
(PID.TID 0000.0001)                 8.015229982413632E+04,      /* I = 97 */
(PID.TID 0000.0001)                 1.333130744933864E+05,      /* I = 98 */
(PID.TID 0000.0001)                 1.691744868129062E+05,      /* I = 99 */
(PID.TID 0000.0001)      . . .
(PID.TID 0000.0001)                 2.962371870847826E+05,      /* I =142 */
(PID.TID 0000.0001)                 2.990534755671296E+05,      /* I =143 */
(PID.TID 0000.0001)                 3.007409169495504E+05,      /* I =144 */
(PID.TID 0000.0001)                 3.013031486919771E+05,      /* I =145 */
(PID.TID 0000.0001)                 3.007409169495504E+05,      /* I =146 */
(PID.TID 0000.0001)                 2.990534755671296E+05,      /* I =147 */
(PID.TID 0000.0001)      . . .
(PID.TID 0000.0001)                 1.937548202849060E+05,      /* I =190 */
(PID.TID 0000.0001)                 1.691744868129062E+05,      /* I =191 */
(PID.TID 0000.0001)                 1.333130744933864E+05       /* I =192 */
(PID.TID 0000.0001)     ;
(PID.TID 0000.0001) dxV =  /* dxV(1,:,1,:) ( units: m ) */
(PID.TID 0000.0001)                 8.015229982413632E+04,      /* J =  1 */
(PID.TID 0000.0001)                 1.362652340208229E+05,      /* J =  2 */
(PID.TID 0000.0001)                 1.701080315742101E+05,      /* J =  3 */
(PID.TID 0000.0001)                 1.942331448101592E+05,      /* J =  4 */
(PID.TID 0000.0001)                 2.133486626971531E+05,      /* J =  5 */
(PID.TID 0000.0001)                 2.292584591272880E+05,      /* J =  6 */
(PID.TID 0000.0001)                 2.428369969078989E+05,      /* J =  7 */
(PID.TID 0000.0001)                 2.545652950875683E+05,      /* J =  8 */
(PID.TID 0000.0001)                 2.647274964828301E+05,      /* J =  9 */
(PID.TID 0000.0001)                 2.734980225206389E+05,      /* J = 10 */
(PID.TID 0000.0001)                 2.809856491525217E+05,      /* J = 11 */
(PID.TID 0000.0001)                 2.872580915202295E+05,      /* J = 12 */
(PID.TID 0000.0001)                 2.923567890694162E+05,      /* J = 13 */
(PID.TID 0000.0001)                 2.963063101754721E+05,      /* J = 14 */
(PID.TID 0000.0001)                 2.991205495886625E+05,      /* J = 15 */
(PID.TID 0000.0001)                 3.008068453676764E+05,      /* J = 16 */
(PID.TID 0000.0001)                 3.013686170436881E+05,      /* J = 17 */
(PID.TID 0000.0001)                 3.008068453676764E+05,      /* J = 18 */
(PID.TID 0000.0001)                 2.991205495886625E+05,      /* J = 19 */
(PID.TID 0000.0001)                 2.963063101754721E+05,      /* J = 20 */
(PID.TID 0000.0001)                 2.923567890694162E+05,      /* J = 21 */
(PID.TID 0000.0001)                 2.872580915202295E+05,      /* J = 22 */
(PID.TID 0000.0001)                 2.809856491525217E+05,      /* J = 23 */
(PID.TID 0000.0001)                 2.734980225206389E+05,      /* J = 24 */
(PID.TID 0000.0001)                 2.647274964828301E+05,      /* J = 25 */
(PID.TID 0000.0001)                 2.545652950875683E+05,      /* J = 26 */
(PID.TID 0000.0001)                 2.428369969078989E+05,      /* J = 27 */
(PID.TID 0000.0001)                 2.292584591272880E+05,      /* J = 28 */
(PID.TID 0000.0001)                 2.133486626971531E+05,      /* J = 29 */
(PID.TID 0000.0001)                 1.942331448101592E+05,      /* J = 30 */
(PID.TID 0000.0001)                 1.701080315742101E+05,      /* J = 31 */
(PID.TID 0000.0001)                 1.362652340208229E+05       /* J = 32 */
(PID.TID 0000.0001)     ;
(PID.TID 0000.0001) dyU =  /* dyU(:,1,:,1) ( units: m ) */
(PID.TID 0000.0001)                 8.015229982413632E+04,      /* I =  1 */
(PID.TID 0000.0001)                 1.362652340208229E+05,      /* I =  2 */
(PID.TID 0000.0001)                 1.701080315742101E+05,      /* I =  3 */
(PID.TID 0000.0001)      . . .
(PID.TID 0000.0001)                 2.963063101754721E+05,      /* I = 46 */
(PID.TID 0000.0001)                 2.991205495886625E+05,      /* I = 47 */
(PID.TID 0000.0001)                 3.008068453676764E+05,      /* I = 48 */
(PID.TID 0000.0001)                 3.013686170436881E+05,      /* I = 49 */
(PID.TID 0000.0001)                 3.008068453676764E+05,      /* I = 50 */
(PID.TID 0000.0001)                 2.991205495886625E+05,      /* I = 51 */
(PID.TID 0000.0001)      . . .
(PID.TID 0000.0001)                 1.942331448101592E+05,      /* I = 94 */
(PID.TID 0000.0001)                 1.701080315742101E+05,      /* I = 95 */
(PID.TID 0000.0001)                 1.362652340208229E+05,      /* I = 96 */
(PID.TID 0000.0001)                 8.015229982413632E+04,      /* I = 97 */
(PID.TID 0000.0001)                 1.362652340208229E+05,      /* I = 98 */
(PID.TID 0000.0001)                 1.701080315742101E+05,      /* I = 99 */
(PID.TID 0000.0001)      . . .
(PID.TID 0000.0001)                 2.963063101754721E+05,      /* I =142 */
(PID.TID 0000.0001)                 2.991205495886625E+05,      /* I =143 */
(PID.TID 0000.0001)                 3.008068453676764E+05,      /* I =144 */
(PID.TID 0000.0001)                 3.013686170436881E+05,      /* I =145 */
(PID.TID 0000.0001)                 3.008068453676764E+05,      /* I =146 */
(PID.TID 0000.0001)                 2.991205495886625E+05,      /* I =147 */
(PID.TID 0000.0001)      . . .
(PID.TID 0000.0001)                 1.942331448101592E+05,      /* I =190 */
(PID.TID 0000.0001)                 1.701080315742101E+05,      /* I =191 */
(PID.TID 0000.0001)                 1.362652340208229E+05       /* I =192 */
(PID.TID 0000.0001)     ;
(PID.TID 0000.0001) dyU =  /* dyU(1,:,1,:) ( units: m ) */
(PID.TID 0000.0001)                 8.015229982413632E+04,      /* J =  1 */
(PID.TID 0000.0001)                 1.333130744933864E+05,      /* J =  2 */
(PID.TID 0000.0001)                 1.691744868129062E+05,      /* J =  3 */
(PID.TID 0000.0001)                 1.937548202849060E+05,      /* J =  4 */
(PID.TID 0000.0001)                 2.130490056267208E+05,      /* J =  5 */
(PID.TID 0000.0001)                 2.290479919481738E+05,      /* J =  6 */
(PID.TID 0000.0001)                 2.426774358027003E+05,      /* J =  7 */
(PID.TID 0000.0001)                 2.544372984215561E+05,      /* J =  8 */
(PID.TID 0000.0001)                 2.646201463834826E+05,      /* J =  9 */
(PID.TID 0000.0001)                 2.734046499619031E+05,      /* J = 10 */
(PID.TID 0000.0001)                 2.809019351693761E+05,      /* J = 11 */
(PID.TID 0000.0001)                 2.871811105274442E+05,      /* J = 12 */
(PID.TID 0000.0001)                 2.922844849381675E+05,      /* J = 13 */
(PID.TID 0000.0001)                 2.962371870847826E+05,      /* J = 14 */
(PID.TID 0000.0001)                 2.990534755671296E+05,      /* J = 15 */
(PID.TID 0000.0001)                 3.007409169495504E+05,      /* J = 16 */
(PID.TID 0000.0001)                 3.013031486919771E+05,      /* J = 17 */
(PID.TID 0000.0001)                 3.007409169495504E+05,      /* J = 18 */
(PID.TID 0000.0001)                 2.990534755671296E+05,      /* J = 19 */
(PID.TID 0000.0001)                 2.962371870847826E+05,      /* J = 20 */
(PID.TID 0000.0001)                 2.922844849381675E+05,      /* J = 21 */
(PID.TID 0000.0001)                 2.871811105274442E+05,      /* J = 22 */
(PID.TID 0000.0001)                 2.809019351693761E+05,      /* J = 23 */
(PID.TID 0000.0001)                 2.734046499619031E+05,      /* J = 24 */
(PID.TID 0000.0001)                 2.646201463834826E+05,      /* J = 25 */
(PID.TID 0000.0001)                 2.544372984215561E+05,      /* J = 26 */
(PID.TID 0000.0001)                 2.426774358027003E+05,      /* J = 27 */
(PID.TID 0000.0001)                 2.290479919481738E+05,      /* J = 28 */
(PID.TID 0000.0001)                 2.130490056267208E+05,      /* J = 29 */
(PID.TID 0000.0001)                 1.937548202849060E+05,      /* J = 30 */
(PID.TID 0000.0001)                 1.691744868129062E+05,      /* J = 31 */
(PID.TID 0000.0001)                 1.333130744933864E+05       /* J = 32 */
(PID.TID 0000.0001)     ;
(PID.TID 0000.0001) rA  =  /* rA (:,1,:,1) ( units: m^2 ) */
(PID.TID 0000.0001)                 1.549786705672200E+10,      /* I =  1 */
(PID.TID 0000.0001)                 2.487202533723944E+10,      /* I =  2 */
(PID.TID 0000.0001)                 3.392265412140352E+10,      /* I =  3 */
(PID.TID 0000.0001)      . . .
(PID.TID 0000.0001)                 8.871245486529788E+10,      /* I = 46 */
(PID.TID 0000.0001)                 9.005359372079962E+10,      /* I = 47 */
(PID.TID 0000.0001)                 9.072735712796770E+10,      /* I = 48 */
(PID.TID 0000.0001)                 9.072735712796770E+10,      /* I = 49 */
(PID.TID 0000.0001)                 9.005359372079962E+10,      /* I = 50 */
(PID.TID 0000.0001)                 8.871245486529788E+10,      /* I = 51 */
(PID.TID 0000.0001)      . . .
(PID.TID 0000.0001)                 3.392265412140352E+10,      /* I = 94 */
(PID.TID 0000.0001)                 2.487202533723944E+10,      /* I = 95 */
(PID.TID 0000.0001)                 1.549786705672200E+10,      /* I = 96 */
(PID.TID 0000.0001)                 1.549786705672200E+10,      /* I = 97 */
(PID.TID 0000.0001)                 2.487202533723944E+10,      /* I = 98 */
(PID.TID 0000.0001)                 3.392265412140352E+10,      /* I = 99 */
(PID.TID 0000.0001)      . . .
(PID.TID 0000.0001)                 8.871245486529788E+10,      /* I =142 */
(PID.TID 0000.0001)                 9.005359372079962E+10,      /* I =143 */
(PID.TID 0000.0001)                 9.072735712796770E+10,      /* I =144 */
(PID.TID 0000.0001)                 9.072735712796770E+10,      /* I =145 */
(PID.TID 0000.0001)                 9.005359372079962E+10,      /* I =146 */
(PID.TID 0000.0001)                 8.871245486529788E+10,      /* I =147 */
(PID.TID 0000.0001)      . . .
(PID.TID 0000.0001)                 3.392265412140352E+10,      /* I =190 */
(PID.TID 0000.0001)                 2.487202533723944E+10,      /* I =191 */
(PID.TID 0000.0001)                 1.549786705672200E+10       /* I =192 */
(PID.TID 0000.0001)     ;
(PID.TID 0000.0001) rA  =  /* rA (1,:,1,:) ( units: m^2 ) */
(PID.TID 0000.0001)                 1.549786705672200E+10,      /* J =  1 */
(PID.TID 0000.0001)                 2.487202533723944E+10,      /* J =  2 */
(PID.TID 0000.0001)                 3.392265412140352E+10,      /* J =  3 */
(PID.TID 0000.0001)                 4.200427377313133E+10,      /* J =  4 */
(PID.TID 0000.0001)                 4.931323764668228E+10,      /* J =  5 */
(PID.TID 0000.0001)                 5.597545074899419E+10,      /* J =  6 */
(PID.TID 0000.0001)                 6.205603937791459E+10,      /* J =  7 */
(PID.TID 0000.0001)                 6.758299971934573E+10,      /* J =  8 */
(PID.TID 0000.0001)                 7.256155653843707E+10,      /* J =  9 */
(PID.TID 0000.0001)                 7.698291833687604E+10,      /* J = 10 */
(PID.TID 0000.0001)                 8.083005486272011E+10,      /* J = 11 */
(PID.TID 0000.0001)                 8.408183191745641E+10,      /* J = 12 */
(PID.TID 0000.0001)                 8.671615787312848E+10,      /* J = 13 */
(PID.TID 0000.0001)                 8.871245486529788E+10,      /* J = 14 */
(PID.TID 0000.0001)                 9.005359372079964E+10,      /* J = 15 */
(PID.TID 0000.0001)     2 @  9.072735712796770E+10,             /* J = 16: 17 */
(PID.TID 0000.0001)                 9.005359372079964E+10,      /* J = 18 */
(PID.TID 0000.0001)                 8.871245486529788E+10,      /* J = 19 */
(PID.TID 0000.0001)                 8.671615787312848E+10,      /* J = 20 */
(PID.TID 0000.0001)                 8.408183191745641E+10,      /* J = 21 */
(PID.TID 0000.0001)                 8.083005486272011E+10,      /* J = 22 */
(PID.TID 0000.0001)                 7.698291833687604E+10,      /* J = 23 */
(PID.TID 0000.0001)                 7.256155653843707E+10,      /* J = 24 */
(PID.TID 0000.0001)                 6.758299971934573E+10,      /* J = 25 */
(PID.TID 0000.0001)                 6.205603937791459E+10,      /* J = 26 */
(PID.TID 0000.0001)                 5.597545074899419E+10,      /* J = 27 */
(PID.TID 0000.0001)                 4.931323764668228E+10,      /* J = 28 */
(PID.TID 0000.0001)                 4.200427377313133E+10,      /* J = 29 */
(PID.TID 0000.0001)                 3.392265412140352E+10,      /* J = 30 */
(PID.TID 0000.0001)                 2.487202533723944E+10,      /* J = 31 */
(PID.TID 0000.0001)                 1.549786705672200E+10       /* J = 32 */
(PID.TID 0000.0001)     ;
(PID.TID 0000.0001) rAw =  /* rAw(:,1,:,1) ( units: m^2 ) */
(PID.TID 0000.0001)                 1.146542574196578E+10,      /* I =  1 */
(PID.TID 0000.0001)                 1.953030837147821E+10,      /* I =  2 */
(PID.TID 0000.0001)                 2.933967873337320E+10,      /* I =  3 */
(PID.TID 0000.0001)      . . .
(PID.TID 0000.0001)                 8.781604517750543E+10,      /* I = 46 */
(PID.TID 0000.0001)                 8.948917519517891E+10,      /* I = 47 */
(PID.TID 0000.0001)                 9.049933392602551E+10,      /* I = 48 */
(PID.TID 0000.0001)                 9.083715262395341E+10,      /* I = 49 */
(PID.TID 0000.0001)                 9.049933392602551E+10,      /* I = 50 */
(PID.TID 0000.0001)                 8.948917519517891E+10,      /* I = 51 */
(PID.TID 0000.0001)      . . .
(PID.TID 0000.0001)                 3.796176706541101E+10,      /* I = 94 */
(PID.TID 0000.0001)                 2.933967873337320E+10,      /* I = 95 */
(PID.TID 0000.0001)                 1.953030837147821E+10,      /* I = 96 */
(PID.TID 0000.0001)                 1.146542574196578E+10,      /* I = 97 */
(PID.TID 0000.0001)                 1.953030837147821E+10,      /* I = 98 */
(PID.TID 0000.0001)                 2.933967873337320E+10,      /* I = 99 */
(PID.TID 0000.0001)      . . .
(PID.TID 0000.0001)                 8.781604517750543E+10,      /* I =142 */
(PID.TID 0000.0001)                 8.948917519517891E+10,      /* I =143 */
(PID.TID 0000.0001)                 9.049933392602551E+10,      /* I =144 */
(PID.TID 0000.0001)                 9.083715262395341E+10,      /* I =145 */
(PID.TID 0000.0001)                 9.049933392602551E+10,      /* I =146 */
(PID.TID 0000.0001)                 8.948917519517891E+10,      /* I =147 */
(PID.TID 0000.0001)      . . .
(PID.TID 0000.0001)                 3.796176706541101E+10,      /* I =190 */
(PID.TID 0000.0001)                 2.933967873337320E+10,      /* I =191 */
(PID.TID 0000.0001)                 1.953030837147821E+10       /* I =192 */
(PID.TID 0000.0001)     ;
(PID.TID 0000.0001) rAw =  /* rAw(1,:,1,:) ( units: m^2 ) */
(PID.TID 0000.0001)                 1.146542574196578E+10,      /* J =  1 */
(PID.TID 0000.0001)                 2.377787005983833E+10,      /* J =  2 */
(PID.TID 0000.0001)                 3.336273018972140E+10,      /* J =  3 */
(PID.TID 0000.0001)                 4.165099566747280E+10,      /* J =  4 */
(PID.TID 0000.0001)                 4.906782896008959E+10,      /* J =  5 */
(PID.TID 0000.0001)                 5.579613053300137E+10,      /* J =  6 */
(PID.TID 0000.0001)                 6.192151981164894E+10,      /* J =  7 */
(PID.TID 0000.0001)                 6.748097638954340E+10,      /* J =  8 */
(PID.TID 0000.0001)                 7.248418794208269E+10,      /* J =  9 */
(PID.TID 0000.0001)                 7.692477203447566E+10,      /* J = 10 */
(PID.TID 0000.0001)                 8.078707194826852E+10,      /* J = 11 */
(PID.TID 0000.0001)                 8.405076334249313E+10,      /* J = 12 */
(PID.TID 0000.0001)                 8.669423991218034E+10,      /* J = 13 */
(PID.TID 0000.0001)                 8.869721460381146E+10,      /* J = 14 */
(PID.TID 0000.0001)                 9.004272888354184E+10,      /* J = 15 */
(PID.TID 0000.0001)     2 @  9.071865929421040E+10,             /* J = 16: 17 */
(PID.TID 0000.0001)                 9.004272888354184E+10,      /* J = 18 */
(PID.TID 0000.0001)                 8.869721460381146E+10,      /* J = 19 */
(PID.TID 0000.0001)                 8.669423991218034E+10,      /* J = 20 */
(PID.TID 0000.0001)                 8.405076334249313E+10,      /* J = 21 */
(PID.TID 0000.0001)                 8.078707194826852E+10,      /* J = 22 */
(PID.TID 0000.0001)                 7.692477203447566E+10,      /* J = 23 */
(PID.TID 0000.0001)                 7.248418794208269E+10,      /* J = 24 */
(PID.TID 0000.0001)                 6.748097638954340E+10,      /* J = 25 */
(PID.TID 0000.0001)                 6.192151981164894E+10,      /* J = 26 */
(PID.TID 0000.0001)                 5.579613053300137E+10,      /* J = 27 */
(PID.TID 0000.0001)                 4.906782896008959E+10,      /* J = 28 */
(PID.TID 0000.0001)                 4.165099566747280E+10,      /* J = 29 */
(PID.TID 0000.0001)                 3.336273018972140E+10,      /* J = 30 */
(PID.TID 0000.0001)                 2.377787005983833E+10,      /* J = 31 */
(PID.TID 0000.0001)                 1.146542574196578E+10       /* J = 32 */
(PID.TID 0000.0001)     ;
(PID.TID 0000.0001) rAs =  /* rAs(:,1,:,1) ( units: m^2 ) */
(PID.TID 0000.0001)                 1.146542574196578E+10,      /* I =  1 */
(PID.TID 0000.0001)                 2.377787005983833E+10,      /* I =  2 */
(PID.TID 0000.0001)                 3.336273018972140E+10,      /* I =  3 */
(PID.TID 0000.0001)      . . .
(PID.TID 0000.0001)                 8.869721460381146E+10,      /* I = 46 */
(PID.TID 0000.0001)                 9.004272888354184E+10,      /* I = 47 */
(PID.TID 0000.0001)                 9.071865929421040E+10,      /* I = 48 */
(PID.TID 0000.0001)                 9.071865929421040E+10,      /* I = 49 */
(PID.TID 0000.0001)                 9.004272888354184E+10,      /* I = 50 */
(PID.TID 0000.0001)                 8.869721460381146E+10,      /* I = 51 */
(PID.TID 0000.0001)      . . .
(PID.TID 0000.0001)                 3.336273018972140E+10,      /* I = 94 */
(PID.TID 0000.0001)                 2.377787005983833E+10,      /* I = 95 */
(PID.TID 0000.0001)                 1.146542574196578E+10,      /* I = 96 */
(PID.TID 0000.0001)                 1.146542574196578E+10,      /* I = 97 */
(PID.TID 0000.0001)                 2.377787005983833E+10,      /* I = 98 */
(PID.TID 0000.0001)                 3.336273018972140E+10,      /* I = 99 */
(PID.TID 0000.0001)      . . .
(PID.TID 0000.0001)                 8.869721460381146E+10,      /* I =142 */
(PID.TID 0000.0001)                 9.004272888354184E+10,      /* I =143 */
(PID.TID 0000.0001)                 9.071865929421040E+10,      /* I =144 */
(PID.TID 0000.0001)                 9.071865929421040E+10,      /* I =145 */
(PID.TID 0000.0001)                 9.004272888354184E+10,      /* I =146 */
(PID.TID 0000.0001)                 8.869721460381146E+10,      /* I =147 */
(PID.TID 0000.0001)      . . .
(PID.TID 0000.0001)                 3.336273018972140E+10,      /* I =190 */
(PID.TID 0000.0001)                 2.377787005983833E+10,      /* I =191 */
(PID.TID 0000.0001)                 1.146542574196578E+10       /* I =192 */
(PID.TID 0000.0001)     ;
(PID.TID 0000.0001) rAs =  /* rAs(1,:,1,:) ( units: m^2 ) */
(PID.TID 0000.0001)                 1.146542574196578E+10,      /* J =  1 */
(PID.TID 0000.0001)                 1.953030837147821E+10,      /* J =  2 */
(PID.TID 0000.0001)                 2.933967873337320E+10,      /* J =  3 */
(PID.TID 0000.0001)                 3.796176706541101E+10,      /* J =  4 */
(PID.TID 0000.0001)                 4.567569462064098E+10,      /* J =  5 */
(PID.TID 0000.0001)                 5.267377164042021E+10,      /* J =  6 */
(PID.TID 0000.0001)                 5.905615583203223E+10,      /* J =  7 */
(PID.TID 0000.0001)                 6.487043381386549E+10,      /* J =  8 */
(PID.TID 0000.0001)                 7.013339442433482E+10,      /* J =  9 */
(PID.TID 0000.0001)                 7.484316069116351E+10,      /* J = 10 */
(PID.TID 0000.0001)                 7.898662143005907E+10,      /* J = 11 */
(PID.TID 0000.0001)                 8.254445101987663E+10,      /* J = 12 */
(PID.TID 0000.0001)                 8.549478360691351E+10,      /* J = 13 */
(PID.TID 0000.0001)                 8.781604517750543E+10,      /* J = 14 */
(PID.TID 0000.0001)                 8.948917519517891E+10,      /* J = 15 */
(PID.TID 0000.0001)                 9.049933392602551E+10,      /* J = 16 */
(PID.TID 0000.0001)                 9.083715262395341E+10,      /* J = 17 */
(PID.TID 0000.0001)                 9.049933392602551E+10,      /* J = 18 */
(PID.TID 0000.0001)                 8.948917519517891E+10,      /* J = 19 */
(PID.TID 0000.0001)                 8.781604517750543E+10,      /* J = 20 */
(PID.TID 0000.0001)                 8.549478360691351E+10,      /* J = 21 */
(PID.TID 0000.0001)                 8.254445101987663E+10,      /* J = 22 */
(PID.TID 0000.0001)                 7.898662143005907E+10,      /* J = 23 */
(PID.TID 0000.0001)                 7.484316069116351E+10,      /* J = 24 */
(PID.TID 0000.0001)                 7.013339442433482E+10,      /* J = 25 */
(PID.TID 0000.0001)                 6.487043381386549E+10,      /* J = 26 */
(PID.TID 0000.0001)                 5.905615583203223E+10,      /* J = 27 */
(PID.TID 0000.0001)                 5.267377164042021E+10,      /* J = 28 */
(PID.TID 0000.0001)                 4.567569462064098E+10,      /* J = 29 */
(PID.TID 0000.0001)                 3.796176706541101E+10,      /* J = 30 */
(PID.TID 0000.0001)                 2.933967873337320E+10,      /* J = 31 */
(PID.TID 0000.0001)                 1.953030837147821E+10       /* J = 32 */
(PID.TID 0000.0001)     ;
(PID.TID 0000.0001) globalArea = /* Integrated horizontal Area (m^2) */
(PID.TID 0000.0001)                 5.098642104278459E+14
(PID.TID 0000.0001)     ;
(PID.TID 0000.0001) hasWetCSCorners = /* Domain contains CS corners (True/False) */
(PID.TID 0000.0001)                   T
(PID.TID 0000.0001)     ;
(PID.TID 0000.0001) // =======================================================
(PID.TID 0000.0001) // End of Model config. summary
(PID.TID 0000.0001) // =======================================================
(PID.TID 0000.0001) 
(PID.TID 0000.0001) == Packages configuration : Check & print summary ==
(PID.TID 0000.0001) 
(PID.TID 0000.0001) ATM_PHYS_CHECK: #define ALLOW_ATM_PHYS
(PID.TID 0000.0001) atmPhys_addTendT = /* apply Atm-Phys tendency to Temperature Eq.*/
(PID.TID 0000.0001)                   T
(PID.TID 0000.0001)     ;
(PID.TID 0000.0001) atmPhys_addTendS = /* apply Atm-Phys tendency to Salinity Eq.*/
(PID.TID 0000.0001)                   T
(PID.TID 0000.0001)     ;
(PID.TID 0000.0001) atmPhys_addTendU = /* apply Atm-Phys tendency to U momentum Eq.*/
(PID.TID 0000.0001)                   T
(PID.TID 0000.0001)     ;
(PID.TID 0000.0001) atmPhys_addTendV = /* apply Atm-Phys tendency to V momentum Eq.*/
(PID.TID 0000.0001)                   T
(PID.TID 0000.0001)     ;
(PID.TID 0000.0001) atmPhys_stepSST = /* step forward SST field */
(PID.TID 0000.0001)                   F
(PID.TID 0000.0001)     ;
(PID.TID 0000.0001) atmPhys_dampUVfac = /* U,V danping coefficient (1/s) */
(PID.TID 0000.0001)    20 @  0.000000000000000E+00,             /* K =  1: 20 */
(PID.TID 0000.0001)                 1.446759259259259E-06,      /* K = 21 */
(PID.TID 0000.0001)                 2.893518518518518E-06,      /* K = 22 */
(PID.TID 0000.0001)                 5.787037037037037E-06,      /* K = 23 */
(PID.TID 0000.0001)                 1.157407407407407E-05,      /* K = 24 */
(PID.TID 0000.0001)                 2.314814814814815E-05,      /* K = 25 */
(PID.TID 0000.0001)                 4.629629629629629E-05       /* K = 26 */
(PID.TID 0000.0001)     ;
(PID.TID 0000.0001) atmPhys_SSTFile = /* SST input file */
(PID.TID 0000.0001)               'SST_APE_1.bin'
(PID.TID 0000.0001)     ;
(PID.TID 0000.0001) atmPhys_QflxFile = /* Q-flux input file */
(PID.TID 0000.0001)               ''
(PID.TID 0000.0001)     ;
(PID.TID 0000.0001) 
(PID.TID 0000.0001) GAD_CHECK: #define ALLOW_GENERIC_ADVDIFF
(PID.TID 0000.0001) // =======================================================
(PID.TID 0000.0001) // Check Model config. (CONFIG_CHECK):
(PID.TID 0000.0001) // CONFIG_CHECK : Normal End
(PID.TID 0000.0001) // =======================================================
(PID.TID 0000.0001) 
(PID.TID 0000.0001)  MDS_READ_FIELD: opening global file: ini_theta_26l.bin
(PID.TID 0000.0001)  MDS_READ_FIELD: opening global file: ini_specQ_26l.bin
(PID.TID 0000.0001) Start initial hydrostatic pressure computation
(PID.TID 0000.0001) Iteration   1, RMS-difference =  3.507436152430E+04
(PID.TID 0000.0001) Iteration   2, RMS-difference =  0.000000000000E+00
(PID.TID 0000.0001) Initial hydrostatic pressure converged.
(PID.TID 0000.0001) 
(PID.TID 0000.0001)  write diagnostics summary to file ioUnit:      6
Iter.Nb:         0 ; Time(s):  0.0000000000000E+00
------------------------------------------------------------------------
2D/3D diagnostics: Number of lists:     2
------------------------------------------------------------------------
listId=    1 ; file name: surfDiag
 nFlds, nActive,       freq     &     phase        , nLev               
   16  |   16  |6220800000.000000         0.000000 |   1
 levels:   1
 diag# | name   |   ipt  |  iMate | kLev|   count |   mate.C|           
    23 |ETAN    |      1 |      0 |   1 |      0(x 12) |
    24 |ETANSQ  |     13 |      0 |   1 |      0(x 12) |
    25 |DETADT2 |     25 |      0 |   1 |      0(x 12) |
   211 |AtPhCAPE|     37 |      0 |   1 |      0(x 12) |
   198 |AtPhCnvP|     49 |      0 |   1 |      0(x 12) |
   199 |AtPhLscP|     61 |      0 |   1 |      0(x 12) |
   207 |AtPhSens|     73 |      0 |   1 |      0(x 12) |
   208 |AtPhEvap|     85 |      0 |   1 |      0(x 12) |
   209 |AtPhTauX|     97 |      0 |   1 |      0(x 12) |
   210 |AtPhTauY|    109 |      0 |   1 |      0(x 12) |
   191 |AtPh_SST|    121 |      0 |   1 |      0(x 12) |
   200 |AtPhInSR|    133 |      0 |   1 |      0(x 12) |
   202 |AtPhOLR |    145 |      0 |   1 |      0(x 12) |
   204 |AtPhNSSR|    157 |      0 |   1 |      0(x 12) |
   205 |AtPhDSLR|    169 |      0 |   1 |      0(x 12) |
   206 |AtPhUSLR|    181 |      0 |   1 |      0(x 12) |
------------------------------------------------------------------------
listId=    2 ; file name: dynDiag
 nFlds, nActive,       freq     &     phase        , nLev               
   20  |   20  |6220800000.000000         0.000000 |  26
 levels:   1   2   3   4   5   6   7   8   9  10  11  12  13  14  15  16  17  18  19  20  21  22  23  24  25
 levels:  26
 diag# | name   |   ipt  |  iMate | kLev|   count |   mate.C|           
    29 |UVEL    |    193 |    297 |  26 |      0(x  4) |
    30 |VVEL    |    297 |    193 |  26 |      0(x  4) |
    31 |WVEL    |    401 |      0 |  26 |      0(x  4) |
    26 |THETA   |    505 |      0 |  26 |      0(x  4) |
    27 |SALT    |    609 |      0 |  26 |      0(x  4) |
    34 |UVELSQ  |    713 |    817 |  26 |      0(x  4) |
    35 |VVELSQ  |    817 |    713 |  26 |      0(x  4) |
    36 |WVELSQ  |    921 |      0 |  26 |      0(x  4) |
    32 |THETASQ |   1025 |      0 |  26 |      0(x  4) |
    33 |SALTSQ  |   1129 |      0 |  26 |      0(x  4) |
    43 |UVELMASS|   1233 |   1337 |  26 |      0(x  4) |
    44 |VVELMASS|   1337 |   1233 |  26 |      0(x  4) |
    39 |UV_VEL_C|   1441 |   1441 |  26 |      0(x  4) |
    28 |RELHUM  |   1545 |      0 |  26 |      0(x  4) |
   109 |ADVx_TH |   1649 |   1753 |  26 |      0(x  4) |
   110 |ADVy_TH |   1753 |   1649 |  26 |      0(x  4) |
   108 |ADVr_TH |   1857 |      0 |  26 |      0(x  4) |
   116 |ADVx_SLT|   1961 |   2065 |  26 |      0(x  4) |
   117 |ADVy_SLT|   2065 |   1961 |  26 |      0(x  4) |
   115 |ADVr_SLT|   2169 |      0 |  26 |      0(x  4) |
------------------------------------------------------------------------
Global & Regional Statistics diagnostics: Number of lists:     3
------------------------------------------------------------------------
listId=   1 ; file name: dynStDiag
 nFlds, nActive,       freq     &     phase        |                    
   11  |   11  |    864000.000000         0.000000 |
 Regions:   0
 diag# | name   |   ipt  |  iMate |    Volume   |   mate-Vol. |         
    23 |ETAN    |      1 |      0 | 0.00000E+00 |
    26 |THETA   |      2 |      0 | 0.00000E+00 |
    27 |SALT    |     28 |      0 | 0.00000E+00 |
    28 |RELHUM  |     54 |      0 | 0.00000E+00 |
    37 |UE_VEL_C|     80 |      0 | 0.00000E+00 |
    38 |VN_VEL_C|    106 |      0 | 0.00000E+00 |
    31 |WVEL    |    132 |      0 | 0.00000E+00 |
   192 |AtPhdTdt|    158 |      0 | 0.00000E+00 |
   193 |AtPhdQdt|    184 |      0 | 0.00000E+00 |
   194 |AtPhdUdt|    210 |      0 | 0.00000E+00 |
   195 |AtPhdVdt|    236 |      0 | 0.00000E+00 |
------------------------------------------------------------------------
listId=   2 ; file name: diffStDiag
 nFlds, nActive,       freq     &     phase        |                    
    7  |    7  |    864000.000000         0.000000 |
 Regions:   0
 diag# | name   |   ipt  |  iMate |    Volume   |   mate-Vol. |         
   196 |AtPhDifT|    262 |      0 | 0.00000E+00 |
   197 |AtPhDifM|    288 |      0 | 0.00000E+00 |
   221 |AtPhDisH|    314 |      0 | 0.00000E+00 |
   219 |AtPhdtTg|    340 |      0 | 0.00000E+00 |
   220 |AtPhdtQg|    366 |      0 | 0.00000E+00 |
   190 |SHAP_dKE|    392 |      0 | 0.00000E+00 |
    98 |MoistCor|    418 |      0 | 0.00000E+00 |
------------------------------------------------------------------------
listId=   3 ; file name: flxStDiag
 nFlds, nActive,       freq     &     phase        |                    
   13  |   13  |    864000.000000         0.000000 |
 Regions:   0
 diag# | name   |   ipt  |  iMate |    Volume   |   mate-Vol. |         
   207 |AtPhSens|    444 |      0 | 0.00000E+00 |
   208 |AtPhEvap|    445 |      0 | 0.00000E+00 |
   209 |AtPhTauX|    446 |      0 | 0.00000E+00 |
   210 |AtPhTauY|    447 |      0 | 0.00000E+00 |
   211 |AtPhCAPE|    448 |      0 | 0.00000E+00 |
   198 |AtPhCnvP|    449 |      0 | 0.00000E+00 |
   199 |AtPhLscP|    450 |      0 | 0.00000E+00 |
   191 |AtPh_SST|    451 |      0 | 0.00000E+00 |
   200 |AtPhInSR|    452 |      0 | 0.00000E+00 |
   202 |AtPhOLR |    453 |      0 | 0.00000E+00 |
   204 |AtPhNSSR|    454 |      0 | 0.00000E+00 |
   205 |AtPhDSLR|    455 |      0 | 0.00000E+00 |
   206 |AtPhUSLR|    456 |      0 | 0.00000E+00 |
------------------------------------------------------------------------
(PID.TID 0000.0001)  MDS_READ_FIELD: opening global file: SST_APE_1.bin
(PID.TID 0000.0001) // =======================================================
(PID.TID 0000.0001) // Model current state
(PID.TID 0000.0001) // =======================================================
(PID.TID 0000.0001) 
(PID.TID 0000.0001) // =======================================================
(PID.TID 0000.0001) // Begin MONITOR dynamic field statistics
(PID.TID 0000.0001) // =======================================================
(PID.TID 0000.0001) %MON time_tsnumber                =                     0
(PID.TID 0000.0001) %MON time_secondsf                =   0.0000000000000E+00
(PID.TID 0000.0001) %MON dynstat_eta_max              =   0.0000000000000E+00
(PID.TID 0000.0001) %MON dynstat_eta_min              =   0.0000000000000E+00
(PID.TID 0000.0001) %MON dynstat_eta_mean             =   0.0000000000000E+00
(PID.TID 0000.0001) %MON dynstat_eta_sd               =   0.0000000000000E+00
(PID.TID 0000.0001) %MON dynstat_eta_del2             =   0.0000000000000E+00
(PID.TID 0000.0001) %MON dynstat_uvel_max             =   0.0000000000000E+00
(PID.TID 0000.0001) %MON dynstat_uvel_min             =   0.0000000000000E+00
(PID.TID 0000.0001) %MON dynstat_uvel_mean            =   0.0000000000000E+00
(PID.TID 0000.0001) %MON dynstat_uvel_sd              =   0.0000000000000E+00
(PID.TID 0000.0001) %MON dynstat_uvel_del2            =   0.0000000000000E+00
(PID.TID 0000.0001) %MON dynstat_vvel_max             =   0.0000000000000E+00
(PID.TID 0000.0001) %MON dynstat_vvel_min             =   0.0000000000000E+00
(PID.TID 0000.0001) %MON dynstat_vvel_mean            =   0.0000000000000E+00
(PID.TID 0000.0001) %MON dynstat_vvel_sd              =   0.0000000000000E+00
(PID.TID 0000.0001) %MON dynstat_vvel_del2            =   0.0000000000000E+00
(PID.TID 0000.0001) %MON dynstat_wvel_max             =   0.0000000000000E+00
(PID.TID 0000.0001) %MON dynstat_wvel_min             =   0.0000000000000E+00
(PID.TID 0000.0001) %MON dynstat_wvel_mean            =   0.0000000000000E+00
(PID.TID 0000.0001) %MON dynstat_wvel_sd              =   0.0000000000000E+00
(PID.TID 0000.0001) %MON dynstat_wvel_del2            =   0.0000000000000E+00
(PID.TID 0000.0001) %MON dynstat_theta_max            =   1.1535634846852E+03
(PID.TID 0000.0001) %MON dynstat_theta_min            =   2.5507757432656E+02
(PID.TID 0000.0001) %MON dynstat_theta_mean           =   3.2787660662240E+02
(PID.TID 0000.0001) %MON dynstat_theta_sd             =   9.0371224687477E+01
(PID.TID 0000.0001) %MON dynstat_theta_del2           =   5.5192238657586E-04
(PID.TID 0000.0001) %MON dynstat_salt_max             =   2.0315162198281E-02
(PID.TID 0000.0001) %MON dynstat_salt_min             =   0.0000000000000E+00
(PID.TID 0000.0001) %MON dynstat_salt_mean            =   1.7953625902710E-03
(PID.TID 0000.0001) %MON dynstat_salt_sd              =   3.7984703449388E-03
(PID.TID 0000.0001) %MON dynstat_salt_del2            =   1.3625554215944E-07
(PID.TID 0000.0001) %MON advcfl_uvel_max              =   0.0000000000000E+00
(PID.TID 0000.0001) %MON advcfl_vvel_max              =   0.0000000000000E+00
(PID.TID 0000.0001) %MON advcfl_wvel_max              =   0.0000000000000E+00
(PID.TID 0000.0001) %MON advcfl_W_hf_max              =   0.0000000000000E+00
(PID.TID 0000.0001) %MON am_eta_mean                  =   0.0000000000000E+00
(PID.TID 0000.0001) %MON am_uZo_mean                  =   0.0000000000000E+00
(PID.TID 0000.0001) %MON am_tot_mean                  =   0.0000000000000E+00
(PID.TID 0000.0001) %MON pe_b_mean                    =   0.0000000000000E+00
(PID.TID 0000.0001) %MON ke_max                       =   0.0000000000000E+00
(PID.TID 0000.0001) %MON ke_mean                      =   0.0000000000000E+00
(PID.TID 0000.0001) %MON ke_vol                       =   5.0986421042785E+19
(PID.TID 0000.0001) %MON vort_r_min                   =   0.0000000000000E+00
(PID.TID 0000.0001) %MON vort_r_max                   =   0.0000000000000E+00
(PID.TID 0000.0001) %MON vort_a_mean                  =  -2.4513551737851E-21
(PID.TID 0000.0001) %MON vort_a_sd                    =   8.4202189509969E-05
(PID.TID 0000.0001) %MON vort_p_mean                  =  -2.4513551737851E-21
(PID.TID 0000.0001) %MON vort_p_sd                    =   8.4202189509969E-05
(PID.TID 0000.0001) %MON surfExpan_theta_mean         =   0.0000000000000E+00
(PID.TID 0000.0001) %MON surfExpan_salt_mean          =   0.0000000000000E+00
(PID.TID 0000.0001) %MON surfExpan_Heat_mean          =   0.0000000000000E+00
(PID.TID 0000.0001) %MON En_Budget_T2PE_mean          =   0.0000000000000E+00
(PID.TID 0000.0001) // =======================================================
(PID.TID 0000.0001) // End MONITOR dynamic field statistics
(PID.TID 0000.0001) // =======================================================
(PID.TID 0000.0001)   Exporting atmospheric fluxes at iter.         0
(PID.TID 0000.0001)   Importing oceanic fields at iteration         0
(PID.TID 0000.0001) SURFACE_FLUX_INIT: opening data.atm_gray
(PID.TID 0000.0001)  OPEN_COPY_DATA_FILE: opening file data.atm_gray
(PID.TID 0000.0001) // =======================================================
(PID.TID 0000.0001) // Parameter file "data.atm_gray"
(PID.TID 0000.0001) // =======================================================
(PID.TID 0000.0001) >
(PID.TID 0000.0001) > &atmosphere_nml
(PID.TID 0000.0001) >    turb = .TRUE.,
(PID.TID 0000.0001) >    ldry_convection = .false.,
(PID.TID 0000.0001) >    lwet_convection = .TRUE.,
(PID.TID 0000.0001) >    do_virtual = .false.,
(PID.TID 0000.0001) >    two_stream = .true.,
(PID.TID 0000.0001) >    mixed_layer_bc = .false.,
(PID.TID 0000.0001) >    roughness_heat = 0.05,
(PID.TID 0000.0001) >    roughness_moist = 0.05,
(PID.TID 0000.0001) >    roughness_mom = 0.05,
(PID.TID 0000.0001) > /
(PID.TID 0000.0001) >
(PID.TID 0000.0001) > &radiation_nml
(PID.TID 0000.0001) >  select_incSW  = 1,
(PID.TID 0000.0001) >  solar_constant= 1365.,
(PID.TID 0000.0001) ># yearLength=
(PID.TID 0000.0001) ># yearPhase =
(PID.TID 0000.0001) ># obliquity =
(PID.TID 0000.0001) >  del_sol=1.,
(PID.TID 0000.0001) ># ir_tau_eq=
(PID.TID 0000.0001) ># ir_tau_pole=
(PID.TID 0000.0001) >  atm_abs= 0.22,
(PID.TID 0000.0001) ># value that Ruth is using as default:
(PID.TID 0000.0001) ># atm_abs= 0.2486,
(PID.TID 0000.0001) ># sw_diff=
(PID.TID 0000.0001) ># linear_tau=
(PID.TID 0000.0001) ># del_sw=
(PID.TID 0000.0001) >  albedo_value=0.38,
(PID.TID 0000.0001) ># window=
(PID.TID 0000.0001) ># wv_exponent=
(PID.TID 0000.0001) ># solar_exponent=
(PID.TID 0000.0001) >  wv_exponent=0.,
(PID.TID 0000.0001) > /
(PID.TID 0000.0001) >
(PID.TID 0000.0001) > &lscale_cond_nml
(PID.TID 0000.0001) ># hc =
(PID.TID 0000.0001) ># do_evap=
(PID.TID 0000.0001) > /
(PID.TID 0000.0001) >
(PID.TID 0000.0001) > &dargan_bettsmiller_nml
(PID.TID 0000.0001) >#-- default:
(PID.TID 0000.0001) >#   tau_bm = 7200.,
(PID.TID 0000.0001) >#   rhbm   = 0.8,
(PID.TID 0000.0001) >#   do_virtual   = .FALSE.,
(PID.TID 0000.0001) >#   do_shallower = .FALSE.,
(PID.TID 0000.0001) >#   do_changeqref= .FALSE.,
(PID.TID 0000.0001) >#   do_envsat    = .FALSE.,
(PID.TID 0000.0001) >#   do_taucape   = .FALSE.,
(PID.TID 0000.0001) >#     capetaubm  = 900.,
(PID.TID 0000.0001) >#     tau_min    = 2400.,
(PID.TID 0000.0001) >#   do_bm_shift  = .FALSE.,
(PID.TID 0000.0001) >#-- POG choice:
(PID.TID 0000.0001) >#  rhbm = 0.7,
(PID.TID 0000.0001) >   do_virtual= .TRUE.,
(PID.TID 0000.0001) >   do_shallower= .TRUE.,
(PID.TID 0000.0001) > /
(PID.TID 0000.0001) >
(PID.TID 0000.0001) > &surface_flux_nml
(PID.TID 0000.0001) > /
(PID.TID 0000.0001) >
(PID.TID 0000.0001) > &vert_turb_driver_nml
(PID.TID 0000.0001) >#  do_shallow_conv, do_mellor_yamada,
(PID.TID 0000.0001) >#  gust_scheme, constant_gust, use_tau,
(PID.TID 0000.0001) >#  do_molecular_diffusion
(PID.TID 0000.0001) >  do_mellor_yamada=.FALSE.,
(PID.TID 0000.0001) > /
(PID.TID 0000.0001) >
(PID.TID 0000.0001) > &diffusivity_nml
(PID.TID 0000.0001) >#  fixed_depth, depth_0, frac_inner,
(PID.TID 0000.0001) >#  rich_crit_pbl, entr_ratio, parcel_buoy,
(PID.TID 0000.0001) >#  znom, free_atm_diff, free_atm_skyhi_diff,
(PID.TID 0000.0001) >#  pbl_mcm, rich_crit_diff, mix_len, rich_prandtl,
(PID.TID 0000.0001) >#  background_m, background_t, ampns, ampns_max,
(PID.TID 0000.0001) >#  do_virtual_non_mcm
(PID.TID 0000.0001) > /
(PID.TID 0000.0001) >
(PID.TID 0000.0001) > &monin_obukhov_nml
(PID.TID 0000.0001) > /
(PID.TID 0000.0001) >
(PID.TID 0000.0001) > &my25_turb_nml
(PID.TID 0000.0001) > /
(PID.TID 0000.0001) >
(PID.TID 0000.0001) > &shallow_conv_nml
(PID.TID 0000.0001) > /
(PID.TID 0000.0001) >
(PID.TID 0000.0001) > &mixed_layer_nml
(PID.TID 0000.0001) ># evaporation, qflux_amp, depth, qflux_width
(PID.TID 0000.0001) >  depth=5000.,
(PID.TID 0000.0001) > /
(PID.TID 0000.0001) 
(PID.TID 0000.0001) SURFACE_FLUX_INIT: finished reading data.atm_gray
(PID.TID 0000.0001) MONIN_OBUKHOV_INIT: opening data.atm_gray
(PID.TID 0000.0001)  OPEN_COPY_DATA_FILE: opening file data.atm_gray
(PID.TID 0000.0001) // =======================================================
(PID.TID 0000.0001) // Parameter file "data.atm_gray"
(PID.TID 0000.0001) // =======================================================
(PID.TID 0000.0001) >
(PID.TID 0000.0001) > &atmosphere_nml
(PID.TID 0000.0001) >    turb = .TRUE.,
(PID.TID 0000.0001) >    ldry_convection = .false.,
(PID.TID 0000.0001) >    lwet_convection = .TRUE.,
(PID.TID 0000.0001) >    do_virtual = .false.,
(PID.TID 0000.0001) >    two_stream = .true.,
(PID.TID 0000.0001) >    mixed_layer_bc = .false.,
(PID.TID 0000.0001) >    roughness_heat = 0.05,
(PID.TID 0000.0001) >    roughness_moist = 0.05,
(PID.TID 0000.0001) >    roughness_mom = 0.05,
(PID.TID 0000.0001) > /
(PID.TID 0000.0001) >
(PID.TID 0000.0001) > &radiation_nml
(PID.TID 0000.0001) >  select_incSW  = 1,
(PID.TID 0000.0001) >  solar_constant= 1365.,
(PID.TID 0000.0001) ># yearLength=
(PID.TID 0000.0001) ># yearPhase =
(PID.TID 0000.0001) ># obliquity =
(PID.TID 0000.0001) >  del_sol=1.,
(PID.TID 0000.0001) ># ir_tau_eq=
(PID.TID 0000.0001) ># ir_tau_pole=
(PID.TID 0000.0001) >  atm_abs= 0.22,
(PID.TID 0000.0001) ># value that Ruth is using as default:
(PID.TID 0000.0001) ># atm_abs= 0.2486,
(PID.TID 0000.0001) ># sw_diff=
(PID.TID 0000.0001) ># linear_tau=
(PID.TID 0000.0001) ># del_sw=
(PID.TID 0000.0001) >  albedo_value=0.38,
(PID.TID 0000.0001) ># window=
(PID.TID 0000.0001) ># wv_exponent=
(PID.TID 0000.0001) ># solar_exponent=
(PID.TID 0000.0001) >  wv_exponent=0.,
(PID.TID 0000.0001) > /
(PID.TID 0000.0001) >
(PID.TID 0000.0001) > &lscale_cond_nml
(PID.TID 0000.0001) ># hc =
(PID.TID 0000.0001) ># do_evap=
(PID.TID 0000.0001) > /
(PID.TID 0000.0001) >
(PID.TID 0000.0001) > &dargan_bettsmiller_nml
(PID.TID 0000.0001) >#-- default:
(PID.TID 0000.0001) >#   tau_bm = 7200.,
(PID.TID 0000.0001) >#   rhbm   = 0.8,
(PID.TID 0000.0001) >#   do_virtual   = .FALSE.,
(PID.TID 0000.0001) >#   do_shallower = .FALSE.,
(PID.TID 0000.0001) >#   do_changeqref= .FALSE.,
(PID.TID 0000.0001) >#   do_envsat    = .FALSE.,
(PID.TID 0000.0001) >#   do_taucape   = .FALSE.,
(PID.TID 0000.0001) >#     capetaubm  = 900.,
(PID.TID 0000.0001) >#     tau_min    = 2400.,
(PID.TID 0000.0001) >#   do_bm_shift  = .FALSE.,
(PID.TID 0000.0001) >#-- POG choice:
(PID.TID 0000.0001) >#  rhbm = 0.7,
(PID.TID 0000.0001) >   do_virtual= .TRUE.,
(PID.TID 0000.0001) >   do_shallower= .TRUE.,
(PID.TID 0000.0001) > /
(PID.TID 0000.0001) >
(PID.TID 0000.0001) > &surface_flux_nml
(PID.TID 0000.0001) > /
(PID.TID 0000.0001) >
(PID.TID 0000.0001) > &vert_turb_driver_nml
(PID.TID 0000.0001) >#  do_shallow_conv, do_mellor_yamada,
(PID.TID 0000.0001) >#  gust_scheme, constant_gust, use_tau,
(PID.TID 0000.0001) >#  do_molecular_diffusion
(PID.TID 0000.0001) >  do_mellor_yamada=.FALSE.,
(PID.TID 0000.0001) > /
(PID.TID 0000.0001) >
(PID.TID 0000.0001) > &diffusivity_nml
(PID.TID 0000.0001) >#  fixed_depth, depth_0, frac_inner,
(PID.TID 0000.0001) >#  rich_crit_pbl, entr_ratio, parcel_buoy,
(PID.TID 0000.0001) >#  znom, free_atm_diff, free_atm_skyhi_diff,
(PID.TID 0000.0001) >#  pbl_mcm, rich_crit_diff, mix_len, rich_prandtl,
(PID.TID 0000.0001) >#  background_m, background_t, ampns, ampns_max,
(PID.TID 0000.0001) >#  do_virtual_non_mcm
(PID.TID 0000.0001) > /
(PID.TID 0000.0001) >
(PID.TID 0000.0001) > &monin_obukhov_nml
(PID.TID 0000.0001) > /
(PID.TID 0000.0001) >
(PID.TID 0000.0001) > &my25_turb_nml
(PID.TID 0000.0001) > /
(PID.TID 0000.0001) >
(PID.TID 0000.0001) > &shallow_conv_nml
(PID.TID 0000.0001) > /
(PID.TID 0000.0001) >
(PID.TID 0000.0001) > &mixed_layer_nml
(PID.TID 0000.0001) ># evaporation, qflux_amp, depth, qflux_width
(PID.TID 0000.0001) >  depth=5000.,
(PID.TID 0000.0001) > /
(PID.TID 0000.0001) 
(PID.TID 0000.0001) MONIN_OBUKHOV_INIT: finished reading data.atm_gray
(PID.TID 0000.0001) DIFFUSIVITY_INIT: opening data.atm_gray
(PID.TID 0000.0001)  OPEN_COPY_DATA_FILE: opening file data.atm_gray
(PID.TID 0000.0001) // =======================================================
(PID.TID 0000.0001) // Parameter file "data.atm_gray"
(PID.TID 0000.0001) // =======================================================
(PID.TID 0000.0001) >
(PID.TID 0000.0001) > &atmosphere_nml
(PID.TID 0000.0001) >    turb = .TRUE.,
(PID.TID 0000.0001) >    ldry_convection = .false.,
(PID.TID 0000.0001) >    lwet_convection = .TRUE.,
(PID.TID 0000.0001) >    do_virtual = .false.,
(PID.TID 0000.0001) >    two_stream = .true.,
(PID.TID 0000.0001) >    mixed_layer_bc = .false.,
(PID.TID 0000.0001) >    roughness_heat = 0.05,
(PID.TID 0000.0001) >    roughness_moist = 0.05,
(PID.TID 0000.0001) >    roughness_mom = 0.05,
(PID.TID 0000.0001) > /
(PID.TID 0000.0001) >
(PID.TID 0000.0001) > &radiation_nml
(PID.TID 0000.0001) >  select_incSW  = 1,
(PID.TID 0000.0001) >  solar_constant= 1365.,
(PID.TID 0000.0001) ># yearLength=
(PID.TID 0000.0001) ># yearPhase =
(PID.TID 0000.0001) ># obliquity =
(PID.TID 0000.0001) >  del_sol=1.,
(PID.TID 0000.0001) ># ir_tau_eq=
(PID.TID 0000.0001) ># ir_tau_pole=
(PID.TID 0000.0001) >  atm_abs= 0.22,
(PID.TID 0000.0001) ># value that Ruth is using as default:
(PID.TID 0000.0001) ># atm_abs= 0.2486,
(PID.TID 0000.0001) ># sw_diff=
(PID.TID 0000.0001) ># linear_tau=
(PID.TID 0000.0001) ># del_sw=
(PID.TID 0000.0001) >  albedo_value=0.38,
(PID.TID 0000.0001) ># window=
(PID.TID 0000.0001) ># wv_exponent=
(PID.TID 0000.0001) ># solar_exponent=
(PID.TID 0000.0001) >  wv_exponent=0.,
(PID.TID 0000.0001) > /
(PID.TID 0000.0001) >
(PID.TID 0000.0001) > &lscale_cond_nml
(PID.TID 0000.0001) ># hc =
(PID.TID 0000.0001) ># do_evap=
(PID.TID 0000.0001) > /
(PID.TID 0000.0001) >
(PID.TID 0000.0001) > &dargan_bettsmiller_nml
(PID.TID 0000.0001) >#-- default:
(PID.TID 0000.0001) >#   tau_bm = 7200.,
(PID.TID 0000.0001) >#   rhbm   = 0.8,
(PID.TID 0000.0001) >#   do_virtual   = .FALSE.,
(PID.TID 0000.0001) >#   do_shallower = .FALSE.,
(PID.TID 0000.0001) >#   do_changeqref= .FALSE.,
(PID.TID 0000.0001) >#   do_envsat    = .FALSE.,
(PID.TID 0000.0001) >#   do_taucape   = .FALSE.,
(PID.TID 0000.0001) >#     capetaubm  = 900.,
(PID.TID 0000.0001) >#     tau_min    = 2400.,
(PID.TID 0000.0001) >#   do_bm_shift  = .FALSE.,
(PID.TID 0000.0001) >#-- POG choice:
(PID.TID 0000.0001) >#  rhbm = 0.7,
(PID.TID 0000.0001) >   do_virtual= .TRUE.,
(PID.TID 0000.0001) >   do_shallower= .TRUE.,
(PID.TID 0000.0001) > /
(PID.TID 0000.0001) >
(PID.TID 0000.0001) > &surface_flux_nml
(PID.TID 0000.0001) > /
(PID.TID 0000.0001) >
(PID.TID 0000.0001) > &vert_turb_driver_nml
(PID.TID 0000.0001) >#  do_shallow_conv, do_mellor_yamada,
(PID.TID 0000.0001) >#  gust_scheme, constant_gust, use_tau,
(PID.TID 0000.0001) >#  do_molecular_diffusion
(PID.TID 0000.0001) >  do_mellor_yamada=.FALSE.,
(PID.TID 0000.0001) > /
(PID.TID 0000.0001) >
(PID.TID 0000.0001) > &diffusivity_nml
(PID.TID 0000.0001) >#  fixed_depth, depth_0, frac_inner,
(PID.TID 0000.0001) >#  rich_crit_pbl, entr_ratio, parcel_buoy,
(PID.TID 0000.0001) >#  znom, free_atm_diff, free_atm_skyhi_diff,
(PID.TID 0000.0001) >#  pbl_mcm, rich_crit_diff, mix_len, rich_prandtl,
(PID.TID 0000.0001) >#  background_m, background_t, ampns, ampns_max,
(PID.TID 0000.0001) >#  do_virtual_non_mcm
(PID.TID 0000.0001) > /
(PID.TID 0000.0001) >
(PID.TID 0000.0001) > &monin_obukhov_nml
(PID.TID 0000.0001) > /
(PID.TID 0000.0001) >
(PID.TID 0000.0001) > &my25_turb_nml
(PID.TID 0000.0001) > /
(PID.TID 0000.0001) >
(PID.TID 0000.0001) > &shallow_conv_nml
(PID.TID 0000.0001) > /
(PID.TID 0000.0001) >
(PID.TID 0000.0001) > &mixed_layer_nml
(PID.TID 0000.0001) ># evaporation, qflux_amp, depth, qflux_width
(PID.TID 0000.0001) >  depth=5000.,
(PID.TID 0000.0001) > /
(PID.TID 0000.0001) 
(PID.TID 0000.0001) DIFFUSIVITY_INIT: finished reading data.atm_gray
(PID.TID 0000.0001) SOLVE_FOR_PRESSURE: putPmEinXvector =    F
 cg2d: Sum(rhs),rhsMax =   2.98314262181520E-10  1.15643245709385E+02
(PID.TID 0000.0001)      cg2d_init_res =   3.76284312959005E+03
(PID.TID 0000.0001)      cg2d_iters(min,last) =      -1      12
(PID.TID 0000.0001)      cg2d_last_res =   5.53427932930136E-11
(PID.TID 0000.0001) // =======================================================
(PID.TID 0000.0001) // Begin MONITOR dynamic field statistics
(PID.TID 0000.0001) // =======================================================
(PID.TID 0000.0001) %MON time_tsnumber                =                     1
(PID.TID 0000.0001) %MON time_secondsf                =   3.6000000000000E+02
(PID.TID 0000.0001) %MON dynstat_eta_max              =   1.4279177601168E+01
(PID.TID 0000.0001) %MON dynstat_eta_min              =  -8.7978186035698E+00
(PID.TID 0000.0001) %MON dynstat_eta_mean             =   2.6778371680327E-15
(PID.TID 0000.0001) %MON dynstat_eta_sd               =   7.0826410630125E+00
(PID.TID 0000.0001) %MON dynstat_eta_del2             =   3.6116162885768E-02
(PID.TID 0000.0001) %MON dynstat_uvel_max             =   1.3016800146121E+00
(PID.TID 0000.0001) %MON dynstat_uvel_min             =  -1.3016800146121E+00
(PID.TID 0000.0001) %MON dynstat_uvel_mean            =   0.0000000000000E+00
(PID.TID 0000.0001) %MON dynstat_uvel_sd              =   4.2127420517919E-01
(PID.TID 0000.0001) %MON dynstat_uvel_del2            =   1.0799549628826E-04
(PID.TID 0000.0001) %MON dynstat_vvel_max             =   1.3016800146121E+00
(PID.TID 0000.0001) %MON dynstat_vvel_min             =  -1.3016800146121E+00
(PID.TID 0000.0001) %MON dynstat_vvel_mean            =  -2.5104723450307E-18
(PID.TID 0000.0001) %MON dynstat_vvel_sd              =   4.2127420517919E-01
(PID.TID 0000.0001) %MON dynstat_vvel_del2            =   1.0799549628826E-04
(PID.TID 0000.0001) %MON dynstat_wvel_max             =   1.7170597841977E-02
(PID.TID 0000.0001) %MON dynstat_wvel_min             =  -1.4115125359213E-02
(PID.TID 0000.0001) %MON dynstat_wvel_mean            =   4.3242579828442E-18
(PID.TID 0000.0001) %MON dynstat_wvel_sd              =   4.2423217473424E-03
(PID.TID 0000.0001) %MON dynstat_wvel_del2            =   8.6997822494988E-06
(PID.TID 0000.0001) %MON dynstat_theta_max            =   1.1536174751755E+03
(PID.TID 0000.0001) %MON dynstat_theta_min            =   2.5512006243575E+02
(PID.TID 0000.0001) %MON dynstat_theta_mean           =   3.2787649881739E+02
(PID.TID 0000.0001) %MON dynstat_theta_sd             =   9.0371891346055E+01
(PID.TID 0000.0001) %MON dynstat_theta_del2           =   5.5169713276427E-04
(PID.TID 0000.0001) %MON dynstat_salt_max             =   2.0315407882417E-02
(PID.TID 0000.0001) %MON dynstat_salt_min             =   0.0000000000000E+00
(PID.TID 0000.0001) %MON dynstat_salt_mean            =   1.7995564713765E-03
(PID.TID 0000.0001) %MON dynstat_salt_sd              =   3.8012117985273E-03
(PID.TID 0000.0001) %MON dynstat_salt_del2            =   1.5474848644159E-07
(PID.TID 0000.0001) %MON advcfl_uvel_max              =   3.4356045491987E-03
(PID.TID 0000.0001) %MON advcfl_vvel_max              =   3.4356045491987E-03
(PID.TID 0000.0001) %MON advcfl_wvel_max              =   1.2513369344864E-03
(PID.TID 0000.0001) %MON advcfl_W_hf_max              =   1.3788457929456E-03
(PID.TID 0000.0001) %MON am_eta_mean                  =   0.0000000000000E+00
(PID.TID 0000.0001) %MON am_uZo_mean                  =   3.6777087767332E-08
(PID.TID 0000.0001) %MON am_tot_mean                  =   3.6777087767332E-08
(PID.TID 0000.0001) %MON pe_b_mean                    =   2.1245751682931E-04
(PID.TID 0000.0001) %MON ke_max                       =   8.5367290608323E-01
(PID.TID 0000.0001) %MON ke_mean                      =   1.7747195594936E-01
(PID.TID 0000.0001) %MON ke_vol                       =   5.0986421042785E+19
(PID.TID 0000.0001) %MON vort_r_min                   =  -3.1534869439159E-08
(PID.TID 0000.0001) %MON vort_r_max                   =   3.1534869439159E-08
(PID.TID 0000.0001) %MON vort_a_mean                  =   7.3540655213554E-21
(PID.TID 0000.0001) %MON vort_a_sd                    =   8.4202189512624E-05
(PID.TID 0000.0001) %MON vort_p_mean                  =   7.3540655213554E-21
(PID.TID 0000.0001) %MON vort_p_sd                    =   8.4202189512624E-05
(PID.TID 0000.0001) %MON surfExpan_theta_mean         =  -2.8165385257266E-01
(PID.TID 0000.0001) %MON surfExpan_salt_mean          =  -2.6045821454539E-05
(PID.TID 0000.0001) %MON surfExpan_Heat_mean          =  -2.4699235031096E+01
(PID.TID 0000.0001) %MON En_Budget_T2PE_mean          =   2.8651652141541E+00
(PID.TID 0000.0001) // =======================================================
(PID.TID 0000.0001) // End MONITOR dynamic field statistics
(PID.TID 0000.0001) // =======================================================
 cg2d: Sum(rhs),rhsMax =  -2.91038304567337E-10  3.16094521413045E+02
(PID.TID 0000.0001)      cg2d_init_res =   7.45860181843876E+03
(PID.TID 0000.0001)      cg2d_iters(min,last) =      -1      12
(PID.TID 0000.0001)      cg2d_last_res =   8.44299908372288E-11
(PID.TID 0000.0001) // =======================================================
(PID.TID 0000.0001) // Begin MONITOR dynamic field statistics
(PID.TID 0000.0001) // =======================================================
(PID.TID 0000.0001) %MON time_tsnumber                =                     2
(PID.TID 0000.0001) %MON time_secondsf                =   7.2000000000000E+02
(PID.TID 0000.0001) %MON dynstat_eta_max              =   4.0724419673422E+01
(PID.TID 0000.0001) %MON dynstat_eta_min              =  -2.6346141786130E+01
(PID.TID 0000.0001) %MON dynstat_eta_mean             =   0.0000000000000E+00
(PID.TID 0000.0001) %MON dynstat_eta_sd               =   2.1157316119687E+01
(PID.TID 0000.0001) %MON dynstat_eta_del2             =   8.1655952527243E-02
(PID.TID 0000.0001) %MON dynstat_uvel_max             =   2.5956301233779E+00
(PID.TID 0000.0001) %MON dynstat_uvel_min             =  -2.5959440387769E+00
(PID.TID 0000.0001) %MON dynstat_uvel_mean            =   5.0864536850985E-03
(PID.TID 0000.0001) %MON dynstat_uvel_sd              =   8.4123851055968E-01
(PID.TID 0000.0001) %MON dynstat_uvel_del2            =   2.0793479314629E-04
(PID.TID 0000.0001) %MON dynstat_vvel_max             =   2.5959250085479E+00
(PID.TID 0000.0001) %MON dynstat_vvel_min             =  -2.5957679251484E+00
(PID.TID 0000.0001) %MON dynstat_vvel_mean            =   5.1158610991769E-03
(PID.TID 0000.0001) %MON dynstat_vvel_sd              =   8.4123868554731E-01
(PID.TID 0000.0001) %MON dynstat_vvel_del2            =   2.0795876802485E-04
(PID.TID 0000.0001) %MON dynstat_wvel_max             =   3.2825127713150E-02
(PID.TID 0000.0001) %MON dynstat_wvel_min             =  -2.7087164361755E-02
(PID.TID 0000.0001) %MON dynstat_wvel_mean            =   1.0849956393318E-17
(PID.TID 0000.0001) %MON dynstat_wvel_sd              =   8.4287463206405E-03
(PID.TID 0000.0001) %MON dynstat_wvel_del2            =   1.5680328340528E-05
(PID.TID 0000.0001) %MON dynstat_theta_max            =   1.1536895580190E+03
(PID.TID 0000.0001) %MON dynstat_theta_min            =   2.5519683747285E+02
(PID.TID 0000.0001) %MON dynstat_theta_mean           =   3.2787698776848E+02
(PID.TID 0000.0001) %MON dynstat_theta_sd             =   9.0372326040222E+01
(PID.TID 0000.0001) %MON dynstat_theta_del2           =   5.5370013414928E-04
(PID.TID 0000.0001) %MON dynstat_salt_max             =   2.0315653708615E-02
(PID.TID 0000.0001) %MON dynstat_salt_min             =   0.0000000000000E+00
(PID.TID 0000.0001) %MON dynstat_salt_mean            =   1.8036501850843E-03
(PID.TID 0000.0001) %MON dynstat_salt_sd              =   3.8037417576985E-03
(PID.TID 0000.0001) %MON dynstat_salt_del2            =   1.8257998024724E-07
(PID.TID 0000.0001) %MON advcfl_uvel_max              =   7.1387883997080E-03
(PID.TID 0000.0001) %MON advcfl_vvel_max              =   7.1385412171263E-03
(PID.TID 0000.0001) %MON advcfl_wvel_max              =   2.2607761885588E-03
(PID.TID 0000.0001) %MON advcfl_W_hf_max              =   2.4909894222326E-03
(PID.TID 0000.0001) %MON am_eta_mean                  =  -6.2347056404663E+08
(PID.TID 0000.0001) %MON am_uZo_mean                  =   6.2373481001024E+08
(PID.TID 0000.0001) %MON am_tot_mean                  =   2.6424596360576E+05
(PID.TID 0000.0001) %MON pe_b_mean                    =   1.8958448158532E-03
(PID.TID 0000.0001) %MON ke_max                       =   3.4111626739979E+00
(PID.TID 0000.0001) %MON ke_mean                      =   7.0770840087795E-01
(PID.TID 0000.0001) %MON ke_vol                       =   5.0986421042785E+19
(PID.TID 0000.0001) %MON vort_r_min                   =  -1.0859370361729E-07
(PID.TID 0000.0001) %MON vort_r_max                   =   1.0859234839584E-07
(PID.TID 0000.0001) %MON vort_a_mean                  =  -1.2011640351547E-19
(PID.TID 0000.0001) %MON vort_a_sd                    =   8.4206364615986E-05
(PID.TID 0000.0001) %MON vort_p_mean                  =  -1.2501911340248E-19
(PID.TID 0000.0001) %MON vort_p_sd                    =   8.4203755438742E-05
(PID.TID 0000.0001) %MON surfExpan_theta_mean         =  -5.6145488510994E-01
(PID.TID 0000.0001) %MON surfExpan_salt_mean          =  -5.1878754977079E-05
(PID.TID 0000.0001) %MON surfExpan_Heat_mean          =  -4.9238515249373E+01
(PID.TID 0000.0001) %MON En_Budget_T2PE_mean          =   5.7208600015349E+00
(PID.TID 0000.0001) // =======================================================
(PID.TID 0000.0001) // End MONITOR dynamic field statistics
(PID.TID 0000.0001) // =======================================================
 cg2d: Sum(rhs),rhsMax =  -1.10594555735588E-09  6.03359446131585E+02
(PID.TID 0000.0001)      cg2d_init_res =   1.11043797154917E+04
(PID.TID 0000.0001)      cg2d_iters(min,last) =      -1      12
(PID.TID 0000.0001)      cg2d_last_res =   9.62502968741600E-11
(PID.TID 0000.0001) // =======================================================
(PID.TID 0000.0001) // Begin MONITOR dynamic field statistics
(PID.TID 0000.0001) // =======================================================
(PID.TID 0000.0001) %MON time_tsnumber                =                     3
(PID.TID 0000.0001) %MON time_secondsf                =   1.0800000000000E+03
(PID.TID 0000.0001) %MON dynstat_eta_max              =   7.7550668077141E+01
(PID.TID 0000.0001) %MON dynstat_eta_min              =  -5.2570198075148E+01
(PID.TID 0000.0001) %MON dynstat_eta_mean             =   1.7405941592213E-14
(PID.TID 0000.0001) %MON dynstat_eta_sd               =   4.2126813492141E+01
(PID.TID 0000.0001) %MON dynstat_eta_del2             =   1.2211990654122E-01
(PID.TID 0000.0001) %MON dynstat_uvel_max             =   3.8768797915386E+00
(PID.TID 0000.0001) %MON dynstat_uvel_min             =  -3.8777186240088E+00
(PID.TID 0000.0001) %MON dynstat_uvel_mean            =   1.3318243503819E-02
(PID.TID 0000.0001) %MON dynstat_uvel_sd              =   1.2585666615298E+00
(PID.TID 0000.0001) %MON dynstat_uvel_del2            =   2.9875118492884E-04
(PID.TID 0000.0001) %MON dynstat_vvel_max             =   3.8776878184800E+00
(PID.TID 0000.0001) %MON dynstat_vvel_min             =  -3.8772466125766E+00
(PID.TID 0000.0001) %MON dynstat_vvel_mean            =   1.3406048257819E-02
(PID.TID 0000.0001) %MON dynstat_vvel_sd              =   1.2585671880605E+00
(PID.TID 0000.0001) %MON dynstat_vvel_del2            =   2.9880254147999E-04
(PID.TID 0000.0001) %MON dynstat_wvel_max             =   4.6241598686456E-02
(PID.TID 0000.0001) %MON dynstat_wvel_min             =  -3.9080745289034E-02
(PID.TID 0000.0001) %MON dynstat_wvel_mean            =   3.1449148966140E-18
(PID.TID 0000.0001) %MON dynstat_wvel_sd              =   1.2525018845365E-02
(PID.TID 0000.0001) %MON dynstat_wvel_del2            =   2.0696930972192E-05
(PID.TID 0000.0001) %MON dynstat_theta_max            =   1.1537734983929E+03
(PID.TID 0000.0001) %MON dynstat_theta_min            =   2.5532437478083E+02
(PID.TID 0000.0001) %MON dynstat_theta_mean           =   3.2787821660053E+02
(PID.TID 0000.0001) %MON dynstat_theta_sd             =   9.0372189917441E+01
(PID.TID 0000.0001) %MON dynstat_theta_del2           =   5.5737855361461E-04
(PID.TID 0000.0001) %MON dynstat_salt_max             =   2.0315899748885E-02
(PID.TID 0000.0001) %MON dynstat_salt_min             =   0.0000000000000E+00
(PID.TID 0000.0001) %MON dynstat_salt_mean            =   1.8074292401501E-03
(PID.TID 0000.0001) %MON dynstat_salt_sd              =   3.8063227324987E-03
(PID.TID 0000.0001) %MON dynstat_salt_del2            =   2.1608258159295E-07
(PID.TID 0000.0001) %MON advcfl_uvel_max              =   1.0778824851917E-02
(PID.TID 0000.0001) %MON advcfl_vvel_max              =   1.0778127145374E-02
(PID.TID 0000.0001) %MON advcfl_wvel_max              =   2.9369750413746E-03
(PID.TID 0000.0001) %MON advcfl_W_hf_max              =   3.2357519084130E-03
(PID.TID 0000.0001) %MON am_eta_mean                  =  -1.8676245004180E+09
(PID.TID 0000.0001) %MON am_uZo_mean                  =   1.8681131768449E+09
(PID.TID 0000.0001) %MON am_tot_mean                  =   4.8867642686391E+05
(PID.TID 0000.0001) %MON pe_b_mean                    =   7.5162091262798E-03
(PID.TID 0000.0001) %MON ke_max                       =   7.6238224834672E+00
(PID.TID 0000.0001) %MON ke_mean                      =   1.5841692530585E+00
(PID.TID 0000.0001) %MON ke_vol                       =   5.0986421042785E+19
(PID.TID 0000.0001) %MON vort_r_min                   =  -2.2127398426026E-07
(PID.TID 0000.0001) %MON vort_r_max                   =   2.2134493596534E-07
(PID.TID 0000.0001) %MON vort_a_mean                  =   1.2501911386304E-19
(PID.TID 0000.0001) %MON vort_a_sd                    =   8.4213132605611E-05
(PID.TID 0000.0001) %MON vort_p_mean                  =   1.2501911239207E-19
(PID.TID 0000.0001) %MON vort_p_sd                    =   8.4205314857470E-05
(PID.TID 0000.0001) %MON surfExpan_theta_mean         =  -8.3794758750300E-01
(PID.TID 0000.0001) %MON surfExpan_salt_mean          =  -7.7424247389728E-05
(PID.TID 0000.0001) %MON surfExpan_Heat_mean          =  -7.3493641782479E+01
(PID.TID 0000.0001) %MON En_Budget_T2PE_mean          =   8.5554523719244E+00
(PID.TID 0000.0001) // =======================================================
(PID.TID 0000.0001) // End MONITOR dynamic field statistics
(PID.TID 0000.0001) // =======================================================
 cg2d: Sum(rhs),rhsMax =  -1.86264514923096E-09  9.99637328127159E+02
(PID.TID 0000.0001)      cg2d_init_res =   1.47091060062579E+04
(PID.TID 0000.0001)      cg2d_iters(min,last) =      -1      12
(PID.TID 0000.0001)      cg2d_last_res =   1.04497890510636E-10
(PID.TID 0000.0001) // =======================================================
(PID.TID 0000.0001) // Begin MONITOR dynamic field statistics
(PID.TID 0000.0001) // =======================================================
(PID.TID 0000.0001) %MON time_tsnumber                =                     4
(PID.TID 0000.0001) %MON time_secondsf                =   1.4400000000000E+03
(PID.TID 0000.0001) %MON dynstat_eta_max              =   1.2458280911116E+02
(PID.TID 0000.0001) %MON dynstat_eta_min              =  -8.7369752057739E+01
(PID.TID 0000.0001) %MON dynstat_eta_mean             =  -8.0335115040981E-15
(PID.TID 0000.0001) %MON dynstat_eta_sd               =   6.9902167130631E+01
(PID.TID 0000.0001) %MON dynstat_eta_del2             =   1.5459774673716E-01
(PID.TID 0000.0001) %MON dynstat_uvel_max             =   5.1467873956855E+00
(PID.TID 0000.0001) %MON dynstat_uvel_min             =  -5.1484977354705E+00
(PID.TID 0000.0001) %MON dynstat_uvel_mean            =   2.4655487430731E-02
(PID.TID 0000.0001) %MON dynstat_uvel_sd              =   1.6726798627902E+00
(PID.TID 0000.0001) %MON dynstat_uvel_del2            =   3.8345503557106E-04
(PID.TID 0000.0001) %MON dynstat_vvel_max             =   5.1484725124712E+00
(PID.TID 0000.0001) %MON dynstat_vvel_min             =  -5.1475787689542E+00
(PID.TID 0000.0001) %MON dynstat_vvel_mean            =   2.4830589752021E-02
(PID.TID 0000.0001) %MON dynstat_vvel_sd              =   1.6726810368172E+00
(PID.TID 0000.0001) %MON dynstat_vvel_del2            =   3.8352651830461E-04
(PID.TID 0000.0001) %MON dynstat_wvel_max             =   5.7666864395043E-02
(PID.TID 0000.0001) %MON dynstat_wvel_min             =  -5.2729163092989E-02
(PID.TID 0000.0001) %MON dynstat_wvel_mean            =  -1.1321693627810E-17
(PID.TID 0000.0001) %MON dynstat_wvel_sd              =   1.6542766979081E-02
(PID.TID 0000.0001) %MON dynstat_wvel_del2            =   2.4605292788037E-05
(PID.TID 0000.0001) %MON dynstat_theta_max            =   1.1538230925137E+03
(PID.TID 0000.0001) %MON dynstat_theta_min            =   2.5544944304683E+02
(PID.TID 0000.0001) %MON dynstat_theta_mean           =   3.2787985645187E+02
(PID.TID 0000.0001) %MON dynstat_theta_sd             =   9.0371758870812E+01
(PID.TID 0000.0001) %MON dynstat_theta_del2           =   5.6016372020701E-04
(PID.TID 0000.0001) %MON dynstat_salt_max             =   2.0316146074844E-02
(PID.TID 0000.0001) %MON dynstat_salt_min             =   0.0000000000000E+00
(PID.TID 0000.0001) %MON dynstat_salt_mean            =   1.8110074874281E-03
(PID.TID 0000.0001) %MON dynstat_salt_sd              =   3.8089330103726E-03
(PID.TID 0000.0001) %MON dynstat_salt_del2            =   2.5264799400283E-07
(PID.TID 0000.0001) %MON advcfl_uvel_max              =   1.4418692959367E-02
(PID.TID 0000.0001) %MON advcfl_vvel_max              =   1.4417085431588E-02
(PID.TID 0000.0001) %MON advcfl_wvel_max              =   3.4896200112991E-03
(PID.TID 0000.0001) %MON advcfl_W_hf_max              =   3.8421897172153E-03
(PID.TID 0000.0001) %MON am_eta_mean                  =  -3.7268055187087E+09
(PID.TID 0000.0001) %MON am_uZo_mean                  =   3.7273009507103E+09
(PID.TID 0000.0001) %MON am_tot_mean                  =   4.9543200156403E+05
(PID.TID 0000.0001) %MON pe_b_mean                    =   2.0694880139410E-02
(PID.TID 0000.0001) %MON ke_max                       =   1.3431555131055E+01
(PID.TID 0000.0001) %MON ke_mean                      =   2.7984721127797E+00
(PID.TID 0000.0001) %MON ke_vol                       =   5.0986421042785E+19
(PID.TID 0000.0001) %MON vort_r_min                   =  -3.6775559961002E-07
(PID.TID 0000.0001) %MON vort_r_max                   =   3.6796435483776E-07
(PID.TID 0000.0001) %MON vort_a_mean                  =   2.6474635876880E-19
(PID.TID 0000.0001) %MON vort_a_sd                    =   8.4222466349670E-05
(PID.TID 0000.0001) %MON vort_p_mean                  =   2.6474635219870E-19
(PID.TID 0000.0001) %MON vort_p_sd                    =   8.4206861455411E-05
(PID.TID 0000.0001) %MON surfExpan_theta_mean         =  -1.1103185339583E+00
(PID.TID 0000.0001) %MON surfExpan_salt_mean          =  -1.0263250253097E-04
(PID.TID 0000.0001) %MON surfExpan_Heat_mean          =  -9.7396484824764E+01
(PID.TID 0000.0001) %MON En_Budget_T2PE_mean          =   1.1364314751588E+01
(PID.TID 0000.0001) // =======================================================
(PID.TID 0000.0001) // End MONITOR dynamic field statistics
(PID.TID 0000.0001) // =======================================================
 cg2d: Sum(rhs),rhsMax =  -2.56113708019257E-09  1.48956317504401E+03
(PID.TID 0000.0001)      cg2d_init_res =   1.82672726638135E+04
(PID.TID 0000.0001)      cg2d_iters(min,last) =      -1      12
(PID.TID 0000.0001)      cg2d_last_res =   1.29877812471868E-10
(PID.TID 0000.0001) // =======================================================
(PID.TID 0000.0001) // Begin MONITOR dynamic field statistics
(PID.TID 0000.0001) // =======================================================
(PID.TID 0000.0001) %MON time_tsnumber                =                     5
(PID.TID 0000.0001) %MON time_secondsf                =   1.8000000000000E+03
(PID.TID 0000.0001) %MON dynstat_eta_max              =   1.8564495120820E+02
(PID.TID 0000.0001) %MON dynstat_eta_min              =  -1.3061984755804E+02
(PID.TID 0000.0001) %MON dynstat_eta_mean             =  -4.5523231856556E-14
(PID.TID 0000.0001) %MON dynstat_eta_sd               =   1.0438916121318E+02
(PID.TID 0000.0001) %MON dynstat_eta_del2             =   1.8085950945395E-01
(PID.TID 0000.0001) %MON dynstat_uvel_max             =   6.4051942022606E+00
(PID.TID 0000.0001) %MON dynstat_uvel_min             =  -6.4077725331076E+00
(PID.TID 0000.0001) %MON dynstat_uvel_mean            =   3.9051843996429E-02
(PID.TID 0000.0001) %MON dynstat_uvel_sd              =   2.0828885376945E+00
(PID.TID 0000.0001) %MON dynstat_uvel_del2            =   4.6567160423113E-04
(PID.TID 0000.0001) %MON dynstat_vvel_max             =   6.4077662387787E+00
(PID.TID 0000.0001) %MON dynstat_vvel_min             =  -6.4063146263309E+00
(PID.TID 0000.0001) %MON dynstat_vvel_mean            =   3.9343038879104E-02
(PID.TID 0000.0001) %MON dynstat_vvel_sd              =   2.0828902511377E+00
(PID.TID 0000.0001) %MON dynstat_vvel_del2            =   4.6575696504716E-04
(PID.TID 0000.0001) %MON dynstat_wvel_max             =   6.7960358327444E-02
(PID.TID 0000.0001) %MON dynstat_wvel_min             =  -6.6704474263115E-02
(PID.TID 0000.0001) %MON dynstat_wvel_mean            =   1.5724574483070E-17
(PID.TID 0000.0001) %MON dynstat_wvel_sd              =   2.0494813270573E-02
(PID.TID 0000.0001) %MON dynstat_wvel_del2            =   2.7802528517595E-05
(PID.TID 0000.0001) %MON dynstat_theta_max            =   1.1538734975405E+03
(PID.TID 0000.0001) %MON dynstat_theta_min            =   2.5556841427088E+02
(PID.TID 0000.0001) %MON dynstat_theta_mean           =   3.2788163365298E+02
(PID.TID 0000.0001) %MON dynstat_theta_sd             =   9.0371249344843E+01
(PID.TID 0000.0001) %MON dynstat_theta_del2           =   5.6253669137748E-04
(PID.TID 0000.0001) %MON dynstat_salt_max             =   2.0316392747085E-02
(PID.TID 0000.0001) %MON dynstat_salt_min             =   0.0000000000000E+00
(PID.TID 0000.0001) %MON dynstat_salt_mean            =   1.8144773743476E-03
(PID.TID 0000.0001) %MON dynstat_salt_sd              =   3.8115556466133E-03
(PID.TID 0000.0001) %MON dynstat_salt_del2            =   2.8985814394198E-07
(PID.TID 0000.0001) %MON advcfl_uvel_max              =   1.8074843467264E-02
(PID.TID 0000.0001) %MON advcfl_vvel_max              =   1.8071918143902E-02
(PID.TID 0000.0001) %MON advcfl_wvel_max              =   4.0425770898487E-03
(PID.TID 0000.0001) %MON advcfl_W_hf_max              =   4.4496441271118E-03
(PID.TID 0000.0001) %MON am_eta_mean                  =  -6.1938196274565E+09
(PID.TID 0000.0001) %MON am_uZo_mean                  =   6.1939306337868E+09
(PID.TID 0000.0001) %MON am_tot_mean                  =   1.1100633029079E+05
(PID.TID 0000.0001) %MON pe_b_mean                    =   4.6152204586267E-02
(PID.TID 0000.0001) %MON ke_max                       =   2.0809261393834E+01
(PID.TID 0000.0001) %MON ke_mean                      =   4.3399646899858E+00
(PID.TID 0000.0001) %MON ke_vol                       =   5.0986421042785E+19
(PID.TID 0000.0001) %MON vort_r_min                   =  -5.4727174496047E-07
(PID.TID 0000.0001) %MON vort_r_max                   =   5.4766198919866E-07
(PID.TID 0000.0001) %MON vort_a_mean                  =  -4.9027103475703E-21
(PID.TID 0000.0001) %MON vort_a_sd                    =   8.4234337238796E-05
(PID.TID 0000.0001) %MON vort_p_mean                  =  -4.9027101379301E-21
(PID.TID 0000.0001) %MON vort_p_sd                    =   8.4208392993179E-05
(PID.TID 0000.0001) %MON surfExpan_theta_mean         =  -1.3777038995399E+00
(PID.TID 0000.0001) %MON surfExpan_salt_mean          =  -1.2743911044423E-04
(PID.TID 0000.0001) %MON surfExpan_Heat_mean          =  -1.2087426360616E+02
(PID.TID 0000.0001) %MON En_Budget_T2PE_mean          =   1.4142464574643E+01
(PID.TID 0000.0001) // =======================================================
(PID.TID 0000.0001) // End MONITOR dynamic field statistics
(PID.TID 0000.0001) // =======================================================
 cg2d: Sum(rhs),rhsMax =  -2.32830643653870E-10  2.07029161062572E+03
(PID.TID 0000.0001)      cg2d_init_res =   2.17669930040880E+04
(PID.TID 0000.0001)      cg2d_iters(min,last) =      -1      13
(PID.TID 0000.0001)      cg2d_last_res =   1.52220406431235E-11
(PID.TID 0000.0001) // =======================================================
(PID.TID 0000.0001) // Begin MONITOR dynamic field statistics
(PID.TID 0000.0001) // =======================================================
(PID.TID 0000.0001) %MON time_tsnumber                =                     6
(PID.TID 0000.0001) %MON time_secondsf                =   2.1600000000000E+03
(PID.TID 0000.0001) %MON dynstat_eta_max              =   2.5802691570897E+02
(PID.TID 0000.0001) %MON dynstat_eta_min              =  -1.8217157305999E+02
(PID.TID 0000.0001) %MON dynstat_eta_mean             =  -1.1246916105737E-13
(PID.TID 0000.0001) %MON dynstat_eta_sd               =   1.4547932078958E+02
(PID.TID 0000.0001) %MON dynstat_eta_del2             =   2.0463627750094E-01
(PID.TID 0000.0001) %MON dynstat_uvel_max             =   7.6504827798819E+00
(PID.TID 0000.0001) %MON dynstat_uvel_min             =  -7.6540109605630E+00
(PID.TID 0000.0001) %MON dynstat_uvel_mean            =   5.6450653701789E-02
(PID.TID 0000.0001) %MON dynstat_uvel_sd              =   2.4885289135932E+00
(PID.TID 0000.0001) %MON dynstat_uvel_del2            =   5.4590505241588E-04
(PID.TID 0000.0001) %MON dynstat_vvel_max             =   7.6540387250888E+00
(PID.TID 0000.0001) %MON dynstat_vvel_min             =  -7.6519220541608E+00
(PID.TID 0000.0001) %MON dynstat_vvel_mean            =   5.6886540855920E-02
(PID.TID 0000.0001) %MON dynstat_vvel_sd              =   2.4885309046463E+00
(PID.TID 0000.0001) %MON dynstat_vvel_del2            =   5.4600621660462E-04
(PID.TID 0000.0001) %MON dynstat_wvel_max             =   7.7794293475194E-02
(PID.TID 0000.0001) %MON dynstat_wvel_min             =  -8.1399910924007E-02
(PID.TID 0000.0001) %MON dynstat_wvel_mean            =   1.9498472359007E-17
(PID.TID 0000.0001) %MON dynstat_wvel_sd              =   2.4393172612004E-02
(PID.TID 0000.0001) %MON dynstat_wvel_del2            =   3.0819037537867E-05
(PID.TID 0000.0001) %MON dynstat_theta_max            =   1.1539436039603E+03
(PID.TID 0000.0001) %MON dynstat_theta_min            =   2.5568590495525E+02
(PID.TID 0000.0001) %MON dynstat_theta_mean           =   3.2788336160152E+02
(PID.TID 0000.0001) %MON dynstat_theta_sd             =   9.0370801534104E+01
(PID.TID 0000.0001) %MON dynstat_theta_del2           =   5.6620832447681E-04
(PID.TID 0000.0001) %MON dynstat_salt_max             =   2.0316639821187E-02
(PID.TID 0000.0001) %MON dynstat_salt_min             =   0.0000000000000E+00
(PID.TID 0000.0001) %MON dynstat_salt_mean            =   1.8179026968500E-03
(PID.TID 0000.0001) %MON dynstat_salt_sd              =   3.8141939664167E-03
(PID.TID 0000.0001) %MON dynstat_salt_del2            =   3.3058720579892E-07
(PID.TID 0000.0001) %MON advcfl_uvel_max              =   2.1718749263521E-02
(PID.TID 0000.0001) %MON advcfl_vvel_max              =   2.1714059931518E-02
(PID.TID 0000.0001) %MON advcfl_wvel_max              =   4.5148968480324E-03
(PID.TID 0000.0001) %MON advcfl_W_hf_max              =   4.9677590636875E-03
(PID.TID 0000.0001) %MON am_eta_mean                  =  -9.2597334882120E+09
(PID.TID 0000.0001) %MON am_uZo_mean                  =   9.2589012634577E+09
(PID.TID 0000.0001) %MON am_tot_mean                  =  -8.3222475434875E+05
(PID.TID 0000.0001) %MON pe_b_mean                    =   8.9636350209136E-02
(PID.TID 0000.0001) %MON ke_max                       =   2.9730349202748E+01
(PID.TID 0000.0001) %MON ke_mean                      =   6.1959924860018E+00
(PID.TID 0000.0001) %MON ke_vol                       =   5.0986421042785E+19
(PID.TID 0000.0001) %MON vort_r_min                   =  -7.5883658937088E-07
(PID.TID 0000.0001) %MON vort_r_max                   =   7.5942391629558E-07
(PID.TID 0000.0001) %MON vort_a_mean                  =  -2.4513551737851E-19
(PID.TID 0000.0001) %MON vort_a_sd                    =   8.4248710422431E-05
(PID.TID 0000.0001) %MON vort_p_mean                  =  -2.4758685646286E-19
(PID.TID 0000.0001) %MON vort_p_sd                    =   8.4209907421712E-05
(PID.TID 0000.0001) %MON surfExpan_theta_mean         =  -1.6392841092970E+00
(PID.TID 0000.0001) %MON surfExpan_salt_mean          =  -1.5177565488456E-04
(PID.TID 0000.0001) %MON surfExpan_Heat_mean          =  -1.4385800418690E+02
(PID.TID 0000.0001) %MON En_Budget_T2PE_mean          =   1.6885227549683E+01
(PID.TID 0000.0001) // =======================================================
(PID.TID 0000.0001) // End MONITOR dynamic field statistics
(PID.TID 0000.0001) // =======================================================
 cg2d: Sum(rhs),rhsMax =   1.39698386192322E-09  2.73865085184962E+03
(PID.TID 0000.0001)      cg2d_init_res =   2.51969945563277E+04
(PID.TID 0000.0001)      cg2d_iters(min,last) =      -1      13
(PID.TID 0000.0001)      cg2d_last_res =   2.44006852089085E-11
(PID.TID 0000.0001) // =======================================================
(PID.TID 0000.0001) // Begin MONITOR dynamic field statistics
(PID.TID 0000.0001) // =======================================================
(PID.TID 0000.0001) %MON time_tsnumber                =                     7
(PID.TID 0000.0001) %MON time_secondsf                =   2.5200000000000E+03
(PID.TID 0000.0001) %MON dynstat_eta_max              =   3.4133433169992E+02
(PID.TID 0000.0001) %MON dynstat_eta_min              =  -2.4185289479592E+02
(PID.TID 0000.0001) %MON dynstat_eta_mean             =   0.0000000000000E+00
(PID.TID 0000.0001) %MON dynstat_eta_sd               =   1.9304469177544E+02
(PID.TID 0000.0001) %MON dynstat_eta_del2             =   2.2786933318056E-01
(PID.TID 0000.0001) %MON dynstat_uvel_max             =   8.8841384487227E+00
(PID.TID 0000.0001) %MON dynstat_uvel_min             =  -8.8893513233186E+00
(PID.TID 0000.0001) %MON dynstat_uvel_mean            =   7.6785640223098E-02
(PID.TID 0000.0001) %MON dynstat_uvel_sd              =   2.8889613069355E+00
(PID.TID 0000.0001) %MON dynstat_uvel_del2            =   6.2430158403527E-04
(PID.TID 0000.0001) %MON dynstat_vvel_max             =   8.8893469074516E+00
(PID.TID 0000.0001) %MON dynstat_vvel_min             =  -8.8861533327631E+00
(PID.TID 0000.0001) %MON dynstat_vvel_mean            =   7.7394604063679E-02
(PID.TID 0000.0001) %MON dynstat_vvel_sd              =   2.8889633654956E+00
(PID.TID 0000.0001) %MON dynstat_vvel_del2            =   6.2442205226721E-04
(PID.TID 0000.0001) %MON dynstat_wvel_max             =   8.7091884685495E-02
(PID.TID 0000.0001) %MON dynstat_wvel_min             =  -9.6483043516017E-02
(PID.TID 0000.0001) %MON dynstat_wvel_mean            =   2.1385421296975E-17
(PID.TID 0000.0001) %MON dynstat_wvel_sd              =   2.8242528431526E-02
(PID.TID 0000.0001) %MON dynstat_wvel_del2            =   3.3862388359046E-05
(PID.TID 0000.0001) %MON dynstat_theta_max            =   1.1540368906871E+03
(PID.TID 0000.0001) %MON dynstat_theta_min            =   2.5580170667400E+02
(PID.TID 0000.0001) %MON dynstat_theta_mean           =   3.2788504785011E+02
(PID.TID 0000.0001) %MON dynstat_theta_sd             =   9.0370416658612E+01
(PID.TID 0000.0001) %MON dynstat_theta_del2           =   5.7138821668470E-04
(PID.TID 0000.0001) %MON dynstat_salt_max             =   2.0316887355022E-02
(PID.TID 0000.0001) %MON dynstat_salt_min             =   0.0000000000000E+00
(PID.TID 0000.0001) %MON dynstat_salt_mean            =   1.8212771132453E-03
(PID.TID 0000.0001) %MON dynstat_salt_sd              =   3.8168667682777E-03
(PID.TID 0000.0001) %MON dynstat_salt_del2            =   3.7231740050888E-07
(PID.TID 0000.0001) %MON advcfl_uvel_max              =   2.5363033545333E-02
(PID.TID 0000.0001) %MON advcfl_vvel_max              =   2.5356292137654E-02
(PID.TID 0000.0001) %MON advcfl_wvel_max              =   4.9313992553996E-03
(PID.TID 0000.0001) %MON advcfl_W_hf_max              =   5.4238411591605E-03
(PID.TID 0000.0001) %MON am_eta_mean                  =  -1.2913921201150E+10
(PID.TID 0000.0001) %MON am_uZo_mean                  =   1.2911431443438E+10
(PID.TID 0000.0001) %MON am_tot_mean                  =  -2.4897577122211E+06
(PID.TID 0000.0001) %MON pe_b_mean                    =   1.5783283722386E-01
(PID.TID 0000.0001) %MON ke_max                       =   4.0168048292115E+01
(PID.TID 0000.0001) %MON ke_mean                      =   8.3520463597152E+00
(PID.TID 0000.0001) %MON ke_vol                       =   5.0986421042785E+19
(PID.TID 0000.0001) %MON vort_r_min                   =  -1.0012672723242E-06
(PID.TID 0000.0001) %MON vort_r_max                   =   1.0020429775059E-06
(PID.TID 0000.0001) %MON vort_a_mean                  =  -2.2062196564066E-20
(PID.TID 0000.0001) %MON vort_a_sd                    =   8.4265545511720E-05
(PID.TID 0000.0001) %MON vort_p_mean                  =  -2.2062194561436E-20
(PID.TID 0000.0001) %MON vort_p_sd                    =   8.4211403419041E-05
(PID.TID 0000.0001) %MON surfExpan_theta_mean         =  -1.8942500461182E+00
(PID.TID 0000.0001) %MON surfExpan_salt_mean          =  -1.7558221168761E-04
(PID.TID 0000.0001) %MON surfExpan_Heat_mean          =  -1.6627938831545E+02
(PID.TID 0000.0001) %MON En_Budget_T2PE_mean          =   1.9587908706771E+01
(PID.TID 0000.0001) // =======================================================
(PID.TID 0000.0001) // End MONITOR dynamic field statistics
(PID.TID 0000.0001) // =======================================================
 cg2d: Sum(rhs),rhsMax =  -2.56113708019257E-09  3.49116191713931E+03
(PID.TID 0000.0001)      cg2d_init_res =   2.85464492970853E+04
(PID.TID 0000.0001)      cg2d_iters(min,last) =      -1      13
(PID.TID 0000.0001)      cg2d_last_res =   3.47387597646168E-11
(PID.TID 0000.0001) // =======================================================
(PID.TID 0000.0001) // Begin MONITOR dynamic field statistics
(PID.TID 0000.0001) // =======================================================
(PID.TID 0000.0001) %MON time_tsnumber                =                     8
(PID.TID 0000.0001) %MON time_secondsf                =   2.8800000000000E+03
(PID.TID 0000.0001) %MON dynstat_eta_max              =   4.3513486503947E+02
(PID.TID 0000.0001) %MON dynstat_eta_min              =  -3.0947286559142E+02
(PID.TID 0000.0001) %MON dynstat_eta_mean             =   7.4979440704916E-14
(PID.TID 0000.0001) %MON dynstat_eta_sd               =   2.4693667293035E+02
(PID.TID 0000.0001) %MON dynstat_eta_del2             =   2.5109529913811E-01
(PID.TID 0000.0001) %MON dynstat_uvel_max             =   1.0103751327107E+01
(PID.TID 0000.0001) %MON dynstat_uvel_min             =  -1.0110162597814E+01
(PID.TID 0000.0001) %MON dynstat_uvel_mean            =   9.9981166640502E-02
(PID.TID 0000.0001) %MON dynstat_uvel_sd              =   3.2835659642756E+00
(PID.TID 0000.0001) %MON dynstat_uvel_del2            =   7.0078539198816E-04
(PID.TID 0000.0001) %MON dynstat_vvel_max             =   1.0110219799759E+01
(PID.TID 0000.0001) %MON dynstat_vvel_min             =  -1.0106042777369E+01
(PID.TID 0000.0001) %MON dynstat_vvel_mean            =   1.0079137253137E-01
(PID.TID 0000.0001) %MON dynstat_vvel_sd              =   3.2835675500344E+00
(PID.TID 0000.0001) %MON dynstat_vvel_del2            =   7.0093251311793E-04
(PID.TID 0000.0001) %MON dynstat_wvel_max             =   9.6528247286401E-02
(PID.TID 0000.0001) %MON dynstat_wvel_min             =  -1.1174325589192E-01
(PID.TID 0000.0001) %MON dynstat_wvel_mean            =   1.3837625545102E-17
(PID.TID 0000.0001) %MON dynstat_wvel_sd              =   3.2043419628012E-02
(PID.TID 0000.0001) %MON dynstat_wvel_del2            =   3.7017242995805E-05
(PID.TID 0000.0001) %MON dynstat_theta_max            =   1.1541406691689E+03
(PID.TID 0000.0001) %MON dynstat_theta_min            =   2.5591464185604E+02
(PID.TID 0000.0001) %MON dynstat_theta_mean           =   3.2788663339730E+02
(PID.TID 0000.0001) %MON dynstat_theta_sd             =   9.0370140296891E+01
(PID.TID 0000.0001) %MON dynstat_theta_del2           =   5.7747560566184E-04
(PID.TID 0000.0001) %MON dynstat_salt_max             =   2.0317135404100E-02
(PID.TID 0000.0001) %MON dynstat_salt_min             =   0.0000000000000E+00
(PID.TID 0000.0001) %MON dynstat_salt_mean            =   1.8246176075759E-03
(PID.TID 0000.0001) %MON dynstat_salt_sd              =   3.8195735804771E-03
(PID.TID 0000.0001) %MON dynstat_salt_del2            =   4.1520972628671E-07
(PID.TID 0000.0001) %MON advcfl_uvel_max              =   2.9013938212875E-02
(PID.TID 0000.0001) %MON advcfl_vvel_max              =   2.9004738238526E-02
(PID.TID 0000.0001) %MON advcfl_wvel_max              =   5.3054038517864E-03
(PID.TID 0000.0001) %MON advcfl_W_hf_max              =   5.8325613100988E-03
(PID.TID 0000.0001) %MON am_eta_mean                  =  -1.7144108543078E+10
(PID.TID 0000.0001) %MON am_uZo_mean                  =   1.7139107038795E+10
(PID.TID 0000.0001) %MON am_tot_mean                  =  -5.0015042825890E+06
(PID.TID 0000.0001) %MON pe_b_mean                    =   2.5825742712321E-01
(PID.TID 0000.0001) %MON ke_max                       =   5.2041426474258E+01
(PID.TID 0000.0001) %MON ke_mean                      =   1.0791888215925E+01
(PID.TID 0000.0001) %MON ke_vol                       =   5.0986421042785E+19
(PID.TID 0000.0001) %MON vort_r_min                   =  -1.2730595592341E-06
(PID.TID 0000.0001) %MON vort_r_max                   =   1.2740008328720E-06
(PID.TID 0000.0001) %MON vort_a_mean                  =   6.3735234518414E-20
(PID.TID 0000.0001) %MON vort_a_sd                    =   8.4284796712459E-05
(PID.TID 0000.0001) %MON vort_p_mean                  =   6.1283872013040E-20
(PID.TID 0000.0001) %MON vort_p_sd                    =   8.4212880392927E-05
(PID.TID 0000.0001) %MON surfExpan_theta_mean         =  -2.1418338410298E+00
(PID.TID 0000.0001) %MON surfExpan_salt_mean          =  -1.9879575260299E-04
(PID.TID 0000.0001) %MON surfExpan_Heat_mean          =  -1.8807345231860E+02
(PID.TID 0000.0001) %MON En_Budget_T2PE_mean          =   2.2246140166898E+01
(PID.TID 0000.0001) // =======================================================
(PID.TID 0000.0001) // End MONITOR dynamic field statistics
(PID.TID 0000.0001) // =======================================================
(PID.TID 0000.0001)   Exporting atmospheric fluxes at iter.         8
(PID.TID 0000.0001)   Importing oceanic fields at iteration         8
 cg2d: Sum(rhs),rhsMax =   3.72529029846191E-09  4.32406139727915E+03
(PID.TID 0000.0001)      cg2d_init_res =   3.18047800209722E+04
(PID.TID 0000.0001)      cg2d_iters(min,last) =      -1      13
(PID.TID 0000.0001)      cg2d_last_res =   4.54566442377319E-11
(PID.TID 0000.0001) // =======================================================
(PID.TID 0000.0001) // Begin MONITOR dynamic field statistics
(PID.TID 0000.0001) // =======================================================
(PID.TID 0000.0001) %MON time_tsnumber                =                     9
(PID.TID 0000.0001) %MON time_secondsf                =   3.2400000000000E+03
(PID.TID 0000.0001) %MON dynstat_eta_max              =   5.3896133064813E+02
(PID.TID 0000.0001) %MON dynstat_eta_min              =  -3.8481470229936E+02
(PID.TID 0000.0001) %MON dynstat_eta_mean             =   1.0711348672131E-14
(PID.TID 0000.0001) %MON dynstat_eta_sd               =   3.0698593200183E+02
(PID.TID 0000.0001) %MON dynstat_eta_del2             =   2.7455822818842E-01
(PID.TID 0000.0001) %MON dynstat_uvel_max             =   1.1305569621389E+01
(PID.TID 0000.0001) %MON dynstat_uvel_min             =  -1.1313279114362E+01
(PID.TID 0000.0001) %MON dynstat_uvel_mean            =   1.2595256530303E-01
(PID.TID 0000.0001) %MON dynstat_uvel_sd              =   3.6717462252538E+00
(PID.TID 0000.0001) %MON dynstat_uvel_del2            =   7.7545364779868E-04
(PID.TID 0000.0001) %MON dynstat_vvel_max             =   1.1313415945135E+01
(PID.TID 0000.0001) %MON dynstat_vvel_min             =  -1.1308134062673E+01
(PID.TID 0000.0001) %MON dynstat_vvel_mean            =   1.2699191006919E-01
(PID.TID 0000.0001) %MON dynstat_vvel_sd              =   3.6717467821310E+00
(PID.TID 0000.0001) %MON dynstat_vvel_del2            =   7.7563495337299E-04
(PID.TID 0000.0001) %MON dynstat_wvel_max             =   1.0610096470902E-01
(PID.TID 0000.0001) %MON dynstat_wvel_min             =  -1.2690600536546E-01
(PID.TID 0000.0001) %MON dynstat_wvel_mean            =  -2.5159319172912E-17
(PID.TID 0000.0001) %MON dynstat_wvel_sd              =   3.5794109051185E-02
(PID.TID 0000.0001) %MON dynstat_wvel_del2            =   4.0246869000978E-05
(PID.TID 0000.0001) %MON dynstat_theta_max            =   1.1542543777240E+03
(PID.TID 0000.0001) %MON dynstat_theta_min            =   2.5602625367068E+02
(PID.TID 0000.0001) %MON dynstat_theta_mean           =   3.2788808766886E+02
(PID.TID 0000.0001) %MON dynstat_theta_sd             =   9.0369997013030E+01
(PID.TID 0000.0001) %MON dynstat_theta_del2           =   5.8321029430435E-04
(PID.TID 0000.0001) %MON dynstat_salt_max             =   2.0317384000814E-02
(PID.TID 0000.0001) %MON dynstat_salt_min             =   0.0000000000000E+00
(PID.TID 0000.0001) %MON dynstat_salt_mean            =   1.8279314656157E-03
(PID.TID 0000.0001) %MON dynstat_salt_sd              =   3.8223013565523E-03
(PID.TID 0000.0001) %MON dynstat_salt_del2            =   4.5661485891163E-07
(PID.TID 0000.0001) %MON advcfl_uvel_max              =   3.2656047788407E-02
(PID.TID 0000.0001) %MON advcfl_vvel_max              =   3.2644701193340E-02
(PID.TID 0000.0001) %MON advcfl_wvel_max              =   5.6436697554793E-03
(PID.TID 0000.0001) %MON advcfl_W_hf_max              =   6.2012587303694E-03
(PID.TID 0000.0001) %MON am_eta_mean                  =  -2.1936407408170E+10
(PID.TID 0000.0001) %MON am_uZo_mean                  =   2.1927916961492E+10
(PID.TID 0000.0001) %MON am_tot_mean                  =  -8.4904466782341E+06
(PID.TID 0000.0001) %MON pe_b_mean                    =   3.9913386991092E-01
(PID.TID 0000.0001) %MON ke_max                       =   6.5285513847862E+01
(PID.TID 0000.0001) %MON ke_mean                      =   1.3497717884345E+01
(PID.TID 0000.0001) %MON ke_vol                       =   5.0986421042785E+19
(PID.TID 0000.0001) %MON vort_r_min                   =  -1.5725913983667E-06
(PID.TID 0000.0001) %MON vort_r_max                   =   1.5736669096577E-06
(PID.TID 0000.0001) %MON vort_a_mean                  =  -8.8248786256265E-20
(PID.TID 0000.0001) %MON vort_a_sd                    =   8.4306412721409E-05
(PID.TID 0000.0001) %MON vort_p_mean                  =  -9.3151482502837E-20
(PID.TID 0000.0001) %MON vort_p_sd                    =   8.4214338329079E-05
(PID.TID 0000.0001) %MON surfExpan_theta_mean         =  -2.3812971390813E+00
(PID.TID 0000.0001) %MON surfExpan_salt_mean          =  -2.2135612687614E-04
(PID.TID 0000.0001) %MON surfExpan_Heat_mean          =  -2.0917747386746E+02
(PID.TID 0000.0001) %MON En_Budget_T2PE_mean          =   2.4855686956897E+01
(PID.TID 0000.0001) // =======================================================
(PID.TID 0000.0001) // End MONITOR dynamic field statistics
(PID.TID 0000.0001) // =======================================================
 cg2d: Sum(rhs),rhsMax =  -2.32830643653870E-09  5.23333042432802E+03
(PID.TID 0000.0001)      cg2d_init_res =   3.49612754562575E+04
(PID.TID 0000.0001)      cg2d_iters(min,last) =      -1      13
(PID.TID 0000.0001)      cg2d_last_res =   5.65846533946595E-11
(PID.TID 0000.0001) // =======================================================
(PID.TID 0000.0001) // Begin MONITOR dynamic field statistics
(PID.TID 0000.0001) // =======================================================
(PID.TID 0000.0001) %MON time_tsnumber                =                    10
(PID.TID 0000.0001) %MON time_secondsf                =   3.6000000000000E+03
(PID.TID 0000.0001) %MON dynstat_eta_max              =   6.5231561900920E+02
(PID.TID 0000.0001) %MON dynstat_eta_min              =  -4.6764123168857E+02
(PID.TID 0000.0001) %MON dynstat_eta_mean             =   0.0000000000000E+00
(PID.TID 0000.0001) %MON dynstat_eta_sd               =   3.7300280593582E+02
(PID.TID 0000.0001) %MON dynstat_eta_del2             =   2.9875890536601E-01
(PID.TID 0000.0001) %MON dynstat_uvel_max             =   1.2488107437309E+01
(PID.TID 0000.0001) %MON dynstat_uvel_min             =  -1.2497780262432E+01
(PID.TID 0000.0001) %MON dynstat_uvel_mean            =   1.5460662204081E-01
(PID.TID 0000.0001) %MON dynstat_uvel_sd              =   4.0529330396974E+00
(PID.TID 0000.0001) %MON dynstat_uvel_del2            =   8.4832295429033E-04
(PID.TID 0000.0001) %MON dynstat_vvel_max             =   1.2497456077407E+01
(PID.TID 0000.0001) %MON dynstat_vvel_min             =  -1.2491098968325E+01
(PID.TID 0000.0001) %MON dynstat_vvel_mean            =   1.5590268921589E-01
(PID.TID 0000.0001) %MON dynstat_vvel_sd              =   4.0529319540695E+00
(PID.TID 0000.0001) %MON dynstat_vvel_del2            =   8.4854522348616E-04
(PID.TID 0000.0001) %MON dynstat_wvel_max             =   1.1628824677514E-01
(PID.TID 0000.0001) %MON dynstat_wvel_min             =  -1.4180961353370E-01
(PID.TID 0000.0001) %MON dynstat_wvel_mean            =   1.3208642565779E-16
(PID.TID 0000.0001) %MON dynstat_wvel_sd              =   3.9492121777950E-02
(PID.TID 0000.0001) %MON dynstat_wvel_del2            =   4.3505678671578E-05
(PID.TID 0000.0001) %MON dynstat_theta_max            =   1.1543818682575E+03
(PID.TID 0000.0001) %MON dynstat_theta_min            =   2.5613636040540E+02
(PID.TID 0000.0001) %MON dynstat_theta_mean           =   3.2788941292434E+02
(PID.TID 0000.0001) %MON dynstat_theta_sd             =   9.0369988283365E+01
(PID.TID 0000.0001) %MON dynstat_theta_del2           =   5.8781546675659E-04
(PID.TID 0000.0001) %MON dynstat_salt_max             =   2.0317633217300E-02
(PID.TID 0000.0001) %MON dynstat_salt_min             =   0.0000000000000E+00
(PID.TID 0000.0001) %MON dynstat_salt_mean            =   1.8312154566145E-03
(PID.TID 0000.0001) %MON dynstat_salt_sd              =   3.8250543614335E-03
(PID.TID 0000.0001) %MON dynstat_salt_del2            =   4.9556452845994E-07
(PID.TID 0000.0001) %MON advcfl_uvel_max              =   3.6293752795062E-02
(PID.TID 0000.0001) %MON advcfl_vvel_max              =   3.6280772243693E-02
(PID.TID 0000.0001) %MON advcfl_wvel_max              =   5.9504811746244E-03
(PID.TID 0000.0001) %MON advcfl_W_hf_max              =   6.5346077383859E-03
(PID.TID 0000.0001) %MON am_eta_mean                  =  -2.7275358436260E+10
(PID.TID 0000.0001) %MON am_uZo_mean                  =   2.7262286935134E+10
(PID.TID 0000.0001) %MON am_tot_mean                  =  -1.3071501125767E+07
(PID.TID 0000.0001) %MON pe_b_mean                    =   5.8925846873128E-01
(PID.TID 0000.0001) %MON ke_max                       =   7.9829727502145E+01
(PID.TID 0000.0001) %MON ke_mean                      =   1.6450366252341E+01
(PID.TID 0000.0001) %MON ke_vol                       =   5.0986421042785E+19
(PID.TID 0000.0001) %MON vort_r_min                   =  -1.8982189317923E-06
(PID.TID 0000.0001) %MON vort_r_max                   =   1.8993717177645E-06
(PID.TID 0000.0001) %MON vort_a_mean                  =  -1.2256775868926E-20
(PID.TID 0000.0001) %MON vort_a_sd                    =   8.4330336887913E-05
(PID.TID 0000.0001) %MON vort_p_mean                  =  -1.2256773588841E-20
(PID.TID 0000.0001) %MON vort_p_sd                    =   8.4215777894817E-05
(PID.TID 0000.0001) %MON surfExpan_theta_mean         =  -2.6119286025840E+00
(PID.TID 0000.0001) %MON surfExpan_salt_mean          =  -2.4320769469793E-04
(PID.TID 0000.0001) %MON surfExpan_Heat_mean          =  -2.2953072948299E+02
(PID.TID 0000.0001) %MON En_Budget_T2PE_mean          =   2.7412400886309E+01
(PID.TID 0000.0001) // =======================================================
(PID.TID 0000.0001) // End MONITOR dynamic field statistics
(PID.TID 0000.0001) // =======================================================
 cg2d: Sum(rhs),rhsMax =  -3.25962901115417E-09  6.21473318289019E+03
(PID.TID 0000.0001)      cg2d_init_res =   3.80061861238619E+04
(PID.TID 0000.0001)      cg2d_iters(min,last) =      -1      13
(PID.TID 0000.0001)      cg2d_last_res =   6.79300247332778E-11
(PID.TID 0000.0001) // =======================================================
(PID.TID 0000.0001) // Begin MONITOR dynamic field statistics
(PID.TID 0000.0001) // =======================================================
(PID.TID 0000.0001) %MON time_tsnumber                =                    11
(PID.TID 0000.0001) %MON time_secondsf                =   3.9600000000000E+03
(PID.TID 0000.0001) %MON dynstat_eta_max              =   7.7467382791366E+02
(PID.TID 0000.0001) %MON dynstat_eta_min              =  -5.5769460745673E+02
(PID.TID 0000.0001) %MON dynstat_eta_mean             =   1.2853618406557E-13
(PID.TID 0000.0001) %MON dynstat_eta_sd               =   4.4477837559531E+02
(PID.TID 0000.0001) %MON dynstat_eta_del2             =   3.2401046585222E-01
(PID.TID 0000.0001) %MON dynstat_uvel_max             =   1.3666917223026E+01
(PID.TID 0000.0001) %MON dynstat_uvel_min             =  -1.3675889891561E+01
(PID.TID 0000.0001) %MON dynstat_uvel_mean            =   1.8584203691718E-01
(PID.TID 0000.0001) %MON dynstat_uvel_sd              =   4.4265860206988E+00
(PID.TID 0000.0001) %MON dynstat_uvel_del2            =   9.1928246808127E-04
(PID.TID 0000.0001) %MON dynstat_vvel_max             =   1.3675490700441E+01
(PID.TID 0000.0001) %MON dynstat_vvel_min             =  -1.3667993112630E+01
(PID.TID 0000.0001) %MON dynstat_vvel_mean            =   1.8742206850269E-01
(PID.TID 0000.0001) %MON dynstat_vvel_sd              =   4.4265818418630E+00
(PID.TID 0000.0001) %MON dynstat_vvel_del2            =   9.1954589587571E-04
(PID.TID 0000.0001) %MON dynstat_wvel_max             =   1.2618243367391E-01
(PID.TID 0000.0001) %MON dynstat_wvel_min             =  -1.5634851703437E-01
(PID.TID 0000.0001) %MON dynstat_wvel_mean            =  -3.3965080883431E-17
(PID.TID 0000.0001) %MON dynstat_wvel_sd              =   4.3134262617433E-02
(PID.TID 0000.0001) %MON dynstat_wvel_del2            =   4.6760020505904E-05
(PID.TID 0000.0001) %MON dynstat_theta_max            =   1.1545452278553E+03
(PID.TID 0000.0001) %MON dynstat_theta_min            =   2.5624481161694E+02
(PID.TID 0000.0001) %MON dynstat_theta_mean           =   3.2789058218379E+02
(PID.TID 0000.0001) %MON dynstat_theta_sd             =   9.0370134629267E+01
(PID.TID 0000.0001) %MON dynstat_theta_del2           =   5.9161896233209E-04
(PID.TID 0000.0001) %MON dynstat_salt_max             =   2.0317883103081E-02
(PID.TID 0000.0001) %MON dynstat_salt_min             =   0.0000000000000E+00
(PID.TID 0000.0001) %MON dynstat_salt_mean            =   1.8344768301263E-03
(PID.TID 0000.0001) %MON dynstat_salt_sd              =   3.8278340678454E-03
(PID.TID 0000.0001) %MON dynstat_salt_del2            =   5.3240854557458E-07
(PID.TID 0000.0001) %MON advcfl_uvel_max              =   3.9897906898212E-02
(PID.TID 0000.0001) %MON advcfl_vvel_max              =   3.9884263201795E-02
(PID.TID 0000.0001) %MON advcfl_wvel_max              =   6.2325694093408E-03
(PID.TID 0000.0001) %MON advcfl_W_hf_max              =   6.8400530064473E-03
(PID.TID 0000.0001) %MON am_eta_mean                  =  -3.3143975581556E+10
(PID.TID 0000.0001) %MON am_uZo_mean                  =   3.3125127939334E+10
(PID.TID 0000.0001) %MON am_tot_mean                  =  -1.8847642222775E+07
(PID.TID 0000.0001) %MON pe_b_mean                    =   8.3785518959863E-01
(PID.TID 0000.0001) %MON ke_max                       =   9.5598109309392E+01
(PID.TID 0000.0001) %MON ke_mean                      =   1.9629477447911E+01
(PID.TID 0000.0001) %MON ke_vol                       =   5.0986421042785E+19
(PID.TID 0000.0001) %MON vort_r_min                   =  -2.2483182100612E-06
(PID.TID 0000.0001) %MON vort_r_max                   =   2.2494863882748E-06
(PID.TID 0000.0001) %MON vort_a_mean                  =   1.1031098282033E-19
(PID.TID 0000.0001) %MON vort_a_sd                    =   8.4356507056181E-05
(PID.TID 0000.0001) %MON vort_p_mean                  =   1.0295689426632E-19
(PID.TID 0000.0001) %MON vort_p_sd                    =   8.4217200228070E-05
(PID.TID 0000.0001) %MON surfExpan_theta_mean         =  -2.8330613159964E+00
(PID.TID 0000.0001) %MON surfExpan_salt_mean          =  -2.6429438237401E-04
(PID.TID 0000.0001) %MON surfExpan_Heat_mean          =  -2.4907589079786E+02
(PID.TID 0000.0001) %MON En_Budget_T2PE_mean          =   2.9912469457813E+01
(PID.TID 0000.0001) // =======================================================
(PID.TID 0000.0001) // End MONITOR dynamic field statistics
(PID.TID 0000.0001) // =======================================================
 cg2d: Sum(rhs),rhsMax =   4.65661287307739E-09  7.26386809591958E+03
(PID.TID 0000.0001)      cg2d_init_res =   4.09310483685445E+04
(PID.TID 0000.0001)      cg2d_iters(min,last) =      -1      13
(PID.TID 0000.0001)      cg2d_last_res =   7.86866249710352E-11
(PID.TID 0000.0001) // =======================================================
(PID.TID 0000.0001) // Begin MONITOR dynamic field statistics
(PID.TID 0000.0001) // =======================================================
(PID.TID 0000.0001) %MON time_tsnumber                =                    12
(PID.TID 0000.0001) %MON time_secondsf                =   4.3200000000000E+03
(PID.TID 0000.0001) %MON dynstat_eta_max              =   9.0549296836183E+02
(PID.TID 0000.0001) %MON dynstat_eta_min              =  -6.5469591945927E+02
(PID.TID 0000.0001) %MON dynstat_eta_mean             =   1.2853618406557E-13
(PID.TID 0000.0001) %MON dynstat_eta_sd               =   5.2208624841059E+02
(PID.TID 0000.0001) %MON dynstat_eta_del2             =   3.5018918895356E-01
(PID.TID 0000.0001) %MON dynstat_uvel_max             =   1.4836276519887E+01
(PID.TID 0000.0001) %MON dynstat_uvel_min             =  -1.4846676603282E+01
(PID.TID 0000.0001) %MON dynstat_uvel_mean            =   2.1954995626438E-01
(PID.TID 0000.0001) %MON dynstat_uvel_sd              =   4.7921944076789E+00
(PID.TID 0000.0001) %MON dynstat_uvel_del2            =   9.8813818752744E-04
(PID.TID 0000.0001) %MON dynstat_vvel_max             =   1.4846620468759E+01
(PID.TID 0000.0001) %MON dynstat_vvel_min             =  -1.4837498030448E+01
(PID.TID 0000.0001) %MON dynstat_vvel_mean            =   2.2144076538865E-01
(PID.TID 0000.0001) %MON dynstat_vvel_sd              =   4.7921849858675E+00
(PID.TID 0000.0001) %MON dynstat_vvel_del2            =   9.8844362316241E-04
(PID.TID 0000.0001) %MON dynstat_wvel_max             =   1.3619752094588E-01
(PID.TID 0000.0001) %MON dynstat_wvel_min             =  -1.7044852818592E-01
(PID.TID 0000.0001) %MON dynstat_wvel_mean            =   2.8933217048849E-17
(PID.TID 0000.0001) %MON dynstat_wvel_sd              =   4.6717470252904E-02
(PID.TID 0000.0001) %MON dynstat_wvel_del2            =   4.9997968905857E-05
(PID.TID 0000.0001) %MON dynstat_theta_max            =   1.1547111733117E+03
(PID.TID 0000.0001) %MON dynstat_theta_min            =   2.5635148345655E+02
(PID.TID 0000.0001) %MON dynstat_theta_mean           =   3.2789156737379E+02
(PID.TID 0000.0001) %MON dynstat_theta_sd             =   9.0370456606550E+01
(PID.TID 0000.0001) %MON dynstat_theta_del2           =   5.9570219717386E-04
(PID.TID 0000.0001) %MON dynstat_salt_max             =   2.0318133706286E-02
(PID.TID 0000.0001) %MON dynstat_salt_min             =   0.0000000000000E+00
(PID.TID 0000.0001) %MON dynstat_salt_mean            =   1.8377242834548E-03
(PID.TID 0000.0001) %MON dynstat_salt_sd              =   3.8306476281981E-03
(PID.TID 0000.0001) %MON dynstat_salt_del2            =   5.6881400230290E-07
(PID.TID 0000.0001) %MON advcfl_uvel_max              =   4.3496653138699E-02
(PID.TID 0000.0001) %MON advcfl_vvel_max              =   4.3481726563819E-02
(PID.TID 0000.0001) %MON advcfl_wvel_max              =   6.5697505510632E-03
(PID.TID 0000.0001) %MON advcfl_W_hf_max              =   7.1488683113262E-03
(PID.TID 0000.0001) %MON am_eta_mean                  =  -3.9523792391436E+10
(PID.TID 0000.0001) %MON am_uZo_mean                  =   3.9497882730080E+10
(PID.TID 0000.0001) %MON am_tot_mean                  =  -2.5909661355423E+07
(PID.TID 0000.0001) %MON pe_b_mean                    =   1.1544261174297E+00
(PID.TID 0000.0001) %MON ke_max                       =   1.1250919590020E+02
(PID.TID 0000.0001) %MON ke_mean                      =   2.3013701187832E+01
(PID.TID 0000.0001) %MON ke_vol                       =   5.0986421042785E+19
(PID.TID 0000.0001) %MON vort_r_min                   =  -2.6213291099713E-06
(PID.TID 0000.0001) %MON vort_r_max                   =   2.6224423895674E-06
(PID.TID 0000.0001) %MON vort_a_mean                  =   4.9027103475703E-20
(PID.TID 0000.0001) %MON vort_a_sd                    =   8.4384856019049E-05
(PID.TID 0000.0001) %MON vort_p_mean                  =   4.4124381453328E-20
(PID.TID 0000.0001) %MON vort_p_sd                    =   8.4218607331613E-05
(PID.TID 0000.0001) %MON surfExpan_theta_mean         =  -3.0440701478977E+00
(PID.TID 0000.0001) %MON surfExpan_salt_mean          =  -2.8456140539291E-04
(PID.TID 0000.0001) %MON surfExpan_Heat_mean          =  -2.6775884941736E+02
(PID.TID 0000.0001) %MON En_Budget_T2PE_mean          =   3.2352299935327E+01
(PID.TID 0000.0001) // =======================================================
(PID.TID 0000.0001) // End MONITOR dynamic field statistics
(PID.TID 0000.0001) // =======================================================
 cg2d: Sum(rhs),rhsMax =   0.00000000000000E+00  8.37623452286145E+03
(PID.TID 0000.0001)      cg2d_init_res =   4.37282617632396E+04
(PID.TID 0000.0001)      cg2d_iters(min,last) =      -1      13
(PID.TID 0000.0001)      cg2d_last_res =   8.84589028822749E-11
(PID.TID 0000.0001) // =======================================================
(PID.TID 0000.0001) // Begin MONITOR dynamic field statistics
(PID.TID 0000.0001) // =======================================================
(PID.TID 0000.0001) %MON time_tsnumber                =                    13
(PID.TID 0000.0001) %MON time_secondsf                =   4.6800000000000E+03
(PID.TID 0000.0001) %MON dynstat_eta_max              =   1.0442195193363E+03
(PID.TID 0000.0001) %MON dynstat_eta_min              =  -7.5834482896940E+02
(PID.TID 0000.0001) %MON dynstat_eta_mean             =  -6.4268092032785E-14
(PID.TID 0000.0001) %MON dynstat_eta_sd               =   6.0468437590113E+02
(PID.TID 0000.0001) %MON dynstat_eta_del2             =   3.7690059993438E-01
(PID.TID 0000.0001) %MON dynstat_uvel_max             =   1.5983512826371E+01
(PID.TID 0000.0001) %MON dynstat_uvel_min             =  -1.5995528381414E+01
(PID.TID 0000.0001) %MON dynstat_uvel_mean            =   2.5561449655459E-01
(PID.TID 0000.0001) %MON dynstat_uvel_sd              =   5.1492803401906E+00
(PID.TID 0000.0001) %MON dynstat_uvel_del2            =   1.0546912859325E-03
(PID.TID 0000.0001) %MON dynstat_vvel_max             =   1.5995780582120E+01
(PID.TID 0000.0001) %MON dynstat_vvel_min             =  -1.5984845751933E+01
(PID.TID 0000.0001) %MON dynstat_vvel_mean            =   2.5784236063910E-01
(PID.TID 0000.0001) %MON dynstat_vvel_sd              =   5.1492630732979E+00
(PID.TID 0000.0001) %MON dynstat_vvel_del2            =   1.0550323223370E-03
(PID.TID 0000.0001) %MON dynstat_wvel_max             =   1.4672792300576E-01
(PID.TID 0000.0001) %MON dynstat_wvel_min             =  -1.8403225999085E-01
(PID.TID 0000.0001) %MON dynstat_wvel_mean            =   4.7802706428532E-17
(PID.TID 0000.0001) %MON dynstat_wvel_sd              =   5.0238651619933E-02
(PID.TID 0000.0001) %MON dynstat_wvel_del2            =   5.3213497898098E-05
(PID.TID 0000.0001) %MON dynstat_theta_max            =   1.1548785322040E+03
(PID.TID 0000.0001) %MON dynstat_theta_min            =   2.5645627490474E+02
(PID.TID 0000.0001) %MON dynstat_theta_mean           =   3.2789236844227E+02
(PID.TID 0000.0001) %MON dynstat_theta_sd             =   9.0370954912486E+01
(PID.TID 0000.0001) %MON dynstat_theta_del2           =   6.0097859351874E-04
(PID.TID 0000.0001) %MON dynstat_salt_max             =   2.0318385074100E-02
(PID.TID 0000.0001) %MON dynstat_salt_min             =   0.0000000000000E+00
(PID.TID 0000.0001) %MON dynstat_salt_mean            =   1.8409560680040E-03
(PID.TID 0000.0001) %MON dynstat_salt_sd              =   3.8334848135534E-03
(PID.TID 0000.0001) %MON dynstat_salt_del2            =   6.0308355495287E-07
(PID.TID 0000.0001) %MON advcfl_uvel_max              =   4.7062527287065E-02
(PID.TID 0000.0001) %MON advcfl_vvel_max              =   4.7047013447998E-02
(PID.TID 0000.0001) %MON advcfl_wvel_max              =   7.0933205135659E-03
(PID.TID 0000.0001) %MON advcfl_W_hf_max              =   7.5219365387196E-03
(PID.TID 0000.0001) %MON am_eta_mean                  =  -4.6394913785511E+10
(PID.TID 0000.0001) %MON am_uZo_mean                  =   4.6360579313075E+10
(PID.TID 0000.0001) %MON am_tot_mean                  =  -3.4334472435326E+07
(PID.TID 0000.0001) %MON pe_b_mean                    =   1.5485995535407E+00
(PID.TID 0000.0001) %MON ke_max                       =   1.3047621809992E+02
(PID.TID 0000.0001) %MON ke_mean                      =   2.6580909836868E+01
(PID.TID 0000.0001) %MON ke_vol                       =   5.0986421042785E+19
(PID.TID 0000.0001) %MON vort_r_min                   =  -3.0157519895541E-06
(PID.TID 0000.0001) %MON vort_r_max                   =   3.0167418234930E-06
(PID.TID 0000.0001) %MON vort_a_mean                  =   4.9027103475703E-20
(PID.TID 0000.0001) %MON vort_a_sd                    =   8.4415311088111E-05
(PID.TID 0000.0001) %MON vort_p_mean                  =   5.3929797170929E-20
(PID.TID 0000.0001) %MON vort_p_sd                    =   8.4220001562832E-05
(PID.TID 0000.0001) %MON surfExpan_theta_mean         =  -3.2443635801260E+00
(PID.TID 0000.0001) %MON surfExpan_salt_mean          =  -3.0395884350169E-04
(PID.TID 0000.0001) %MON surfExpan_Heat_mean          =  -2.8552795503109E+02
(PID.TID 0000.0001) %MON En_Budget_T2PE_mean          =   3.4728431153119E+01
(PID.TID 0000.0001) // =======================================================
(PID.TID 0000.0001) // End MONITOR dynamic field statistics
(PID.TID 0000.0001) // =======================================================
 cg2d: Sum(rhs),rhsMax =  -5.58793544769287E-09  9.54731635607927E+03
(PID.TID 0000.0001)      cg2d_init_res =   4.63906135955360E+04
(PID.TID 0000.0001)      cg2d_iters(min,last) =      -1      13
(PID.TID 0000.0001)      cg2d_last_res =   9.70906178604943E-11
(PID.TID 0000.0001) // =======================================================
(PID.TID 0000.0001) // Begin MONITOR dynamic field statistics
(PID.TID 0000.0001) // =======================================================
(PID.TID 0000.0001) %MON time_tsnumber                =                    14
(PID.TID 0000.0001) %MON time_secondsf                =   5.0400000000000E+03
(PID.TID 0000.0001) %MON dynstat_eta_max              =   1.1902999059533E+03
(PID.TID 0000.0001) %MON dynstat_eta_min              =  -8.6832119460862E+02
(PID.TID 0000.0001) %MON dynstat_eta_mean             =  -1.9280427609835E-13
(PID.TID 0000.0001) %MON dynstat_eta_sd               =   6.9231644521847E+02
(PID.TID 0000.0001) %MON dynstat_eta_del2             =   4.0368609663635E-01
(PID.TID 0000.0001) %MON dynstat_uvel_max             =   1.7115026676471E+01
(PID.TID 0000.0001) %MON dynstat_uvel_min             =  -1.7129196217705E+01
(PID.TID 0000.0001) %MON dynstat_uvel_mean            =   2.9391325330579E-01
(PID.TID 0000.0001) %MON dynstat_uvel_sd              =   5.4973997778505E+00
(PID.TID 0000.0001) %MON dynstat_uvel_del2            =   1.1187906189417E-03
(PID.TID 0000.0001) %MON dynstat_vvel_max             =   1.7128466814297E+01
(PID.TID 0000.0001) %MON dynstat_vvel_min             =  -1.7116127202849E+01
(PID.TID 0000.0001) %MON dynstat_vvel_mean            =   2.9650380032588E-01
(PID.TID 0000.0001) %MON dynstat_vvel_sd              =   5.4973712521872E+00
(PID.TID 0000.0001) %MON dynstat_vvel_del2            =   1.1191680571653E-03
(PID.TID 0000.0001) %MON dynstat_wvel_max             =   1.5680664062573E-01
(PID.TID 0000.0001) %MON dynstat_wvel_min             =  -1.9700945998029E-01
(PID.TID 0000.0001) %MON dynstat_wvel_mean            =   3.0191183007494E-17
(PID.TID 0000.0001) %MON dynstat_wvel_sd              =   5.3694345966469E-02
(PID.TID 0000.0001) %MON dynstat_wvel_del2            =   5.6398307156614E-05
(PID.TID 0000.0001) %MON dynstat_theta_max            =   1.1550542946734E+03
(PID.TID 0000.0001) %MON dynstat_theta_min            =   2.5655910449659E+02
(PID.TID 0000.0001) %MON dynstat_theta_mean           =   3.2789298518477E+02
(PID.TID 0000.0001) %MON dynstat_theta_sd             =   9.0371629614210E+01
(PID.TID 0000.0001) %MON dynstat_theta_del2           =   6.0792757206076E-04
(PID.TID 0000.0001) %MON dynstat_salt_max             =   2.0318637253358E-02
(PID.TID 0000.0001) %MON dynstat_salt_min             =   0.0000000000000E+00
(PID.TID 0000.0001) %MON dynstat_salt_mean            =   1.8441725232360E-03
(PID.TID 0000.0001) %MON dynstat_salt_sd              =   3.8363557628061E-03
(PID.TID 0000.0001) %MON dynstat_salt_del2            =   6.3631531242266E-07
(PID.TID 0000.0001) %MON advcfl_uvel_max              =   5.0578251937864E-02
(PID.TID 0000.0001) %MON advcfl_vvel_max              =   5.0561295735640E-02
(PID.TID 0000.0001) %MON advcfl_wvel_max              =   7.5935123761140E-03
(PID.TID 0000.0001) %MON advcfl_W_hf_max              =   8.0035245129984E-03
(PID.TID 0000.0001) %MON am_eta_mean                  =  -5.3736071603957E+10
(PID.TID 0000.0001) %MON am_uZo_mean                  =   5.3691886238543E+10
(PID.TID 0000.0001) %MON am_tot_mean                  =  -4.4185365413986E+07
(PID.TID 0000.0001) %MON pe_b_mean                    =   2.0299761293819E+00
(PID.TID 0000.0001) %MON ke_max                       =   1.4940763710647E+02
(PID.TID 0000.0001) %MON ke_mean                      =   3.0308397253012E+01
(PID.TID 0000.0001) %MON ke_vol                       =   5.0986421042785E+19
(PID.TID 0000.0001) %MON vort_r_min                   =  -3.4301516525647E-06
(PID.TID 0000.0001) %MON vort_r_max                   =   3.4309552121446E-06
(PID.TID 0000.0001) %MON vort_a_mean                  =  -1.2256775868926E-20
(PID.TID 0000.0001) %MON vort_a_sd                    =   8.4447794499749E-05
(PID.TID 0000.0001) %MON vort_p_mean                  =  -9.8054172012479E-21
(PID.TID 0000.0001) %MON vort_p_sd                    =   8.4221385942124E-05
(PID.TID 0000.0001) %MON surfExpan_theta_mean         =  -3.4333916848870E+00
(PID.TID 0000.0001) %MON surfExpan_salt_mean          =  -3.2243937231169E-04
(PID.TID 0000.0001) %MON surfExpan_Heat_mean          =  -3.0233475268425E+02
(PID.TID 0000.0001) %MON En_Budget_T2PE_mean          =   3.7037633711915E+01
(PID.TID 0000.0001) // =======================================================
(PID.TID 0000.0001) // End MONITOR dynamic field statistics
(PID.TID 0000.0001) // =======================================================
 cg2d: Sum(rhs),rhsMax =   0.00000000000000E+00  1.07726815110148E+04
(PID.TID 0000.0001)      cg2d_init_res =   4.89110935824143E+04
(PID.TID 0000.0001)      cg2d_iters(min,last) =      -1      13
(PID.TID 0000.0001)      cg2d_last_res =   1.04591459079709E-10
(PID.TID 0000.0001) // =======================================================
(PID.TID 0000.0001) // Begin MONITOR dynamic field statistics
(PID.TID 0000.0001) // =======================================================
(PID.TID 0000.0001) %MON time_tsnumber                =                    15
(PID.TID 0000.0001) %MON time_secondsf                =   5.4000000000000E+03
(PID.TID 0000.0001) %MON dynstat_eta_max              =   1.3431925885620E+03
(PID.TID 0000.0001) %MON dynstat_eta_min              =  -9.8427907513407E+02
(PID.TID 0000.0001) %MON dynstat_eta_mean             =  -8.5690789377047E-14
(PID.TID 0000.0001) %MON dynstat_eta_sd               =   7.8471288041036E+02
(PID.TID 0000.0001) %MON dynstat_eta_del2             =   4.3017294285235E-01
(PID.TID 0000.0001) %MON dynstat_uvel_max             =   1.8221657832307E+01
(PID.TID 0000.0001) %MON dynstat_uvel_min             =  -1.8237459909974E+01
(PID.TID 0000.0001) %MON dynstat_uvel_mean            =   3.3431781163484E-01
(PID.TID 0000.0001) %MON dynstat_uvel_sd              =   5.8361437800100E+00
(PID.TID 0000.0001) %MON dynstat_uvel_del2            =   1.1803548215854E-03
(PID.TID 0000.0001) %MON dynstat_vvel_max             =   1.8237270041740E+01
(PID.TID 0000.0001) %MON dynstat_vvel_min             =  -1.8222759042962E+01
(PID.TID 0000.0001) %MON dynstat_vvel_mean            =   3.3729586851223E-01
(PID.TID 0000.0001) %MON dynstat_vvel_sd              =   5.8360998864749E+00
(PID.TID 0000.0001) %MON dynstat_vvel_del2            =   1.1807730905095E-03
(PID.TID 0000.0001) %MON dynstat_wvel_max             =   1.6749569123770E-01
(PID.TID 0000.0001) %MON dynstat_wvel_min             =  -2.0928129719479E-01
(PID.TID 0000.0001) %MON dynstat_wvel_mean            =   8.0509821353318E-17
(PID.TID 0000.0001) %MON dynstat_wvel_sd              =   5.7080832171374E-02
(PID.TID 0000.0001) %MON dynstat_wvel_del2            =   5.9534078158441E-05
(PID.TID 0000.0001) %MON dynstat_theta_max            =   1.1552150348958E+03
(PID.TID 0000.0001) %MON dynstat_theta_min            =   2.5665990741683E+02
(PID.TID 0000.0001) %MON dynstat_theta_mean           =   3.2789342756434E+02
(PID.TID 0000.0001) %MON dynstat_theta_sd             =   9.0372473475165E+01
(PID.TID 0000.0001) %MON dynstat_theta_del2           =   6.1626242986325E-04
(PID.TID 0000.0001) %MON dynstat_salt_max             =   2.0318890291323E-02
(PID.TID 0000.0001) %MON dynstat_salt_min             =   0.0000000000000E+00
(PID.TID 0000.0001) %MON dynstat_salt_mean            =   1.8473715586641E-03
(PID.TID 0000.0001) %MON dynstat_salt_sd              =   3.8392736471686E-03
(PID.TID 0000.0001) %MON dynstat_salt_del2            =   6.6771512855079E-07
(PID.TID 0000.0001) %MON advcfl_uvel_max              =   5.4034861737115E-02
(PID.TID 0000.0001) %MON advcfl_vvel_max              =   5.4015756072002E-02
(PID.TID 0000.0001) %MON advcfl_wvel_max              =   8.0665168083644E-03
(PID.TID 0000.0001) %MON advcfl_W_hf_max              =   8.4542072845430E-03
(PID.TID 0000.0001) %MON am_eta_mean                  =  -6.1524681981550E+10
(PID.TID 0000.0001) %MON am_uZo_mean                  =   6.1469169464998E+10
(PID.TID 0000.0001) %MON am_tot_mean                  =  -5.5512516552063E+07
(PID.TID 0000.0001) %MON pe_b_mean                    =   2.6079736414166E+00
(PID.TID 0000.0001) %MON ke_max                       =   1.6920812873294E+02
(PID.TID 0000.0001) %MON ke_mean                      =   3.4173086504020E+01
(PID.TID 0000.0001) %MON ke_vol                       =   5.0986421042785E+19
(PID.TID 0000.0001) %MON vort_r_min                   =  -3.8631488648535E-06
(PID.TID 0000.0001) %MON vort_r_max                   =   3.8637099892472E-06
(PID.TID 0000.0001) %MON vort_a_mean                  =  -1.2992182421061E-19
(PID.TID 0000.0001) %MON vort_a_sd                    =   8.4482223218711E-05
(PID.TID 0000.0001) %MON vort_p_mean                  =  -1.3237312548677E-19
(PID.TID 0000.0001) %MON vort_p_sd                    =   8.4222763852820E-05
(PID.TID 0000.0001) %MON surfExpan_theta_mean         =  -3.6106437770863E+00
(PID.TID 0000.0001) %MON surfExpan_salt_mean          =  -3.3995953107153E-04
(PID.TID 0000.0001) %MON surfExpan_Heat_mean          =  -3.1813379881977E+02
(PID.TID 0000.0001) %MON En_Budget_T2PE_mean          =   3.9276844899115E+01
(PID.TID 0000.0001) // =======================================================
(PID.TID 0000.0001) // End MONITOR dynamic field statistics
(PID.TID 0000.0001) // =======================================================
 cg2d: Sum(rhs),rhsMax =  -1.02445483207703E-08  1.20480917543955E+04
(PID.TID 0000.0001)      cg2d_init_res =   5.12828746989742E+04
(PID.TID 0000.0001)      cg2d_iters(min,last) =      -1      13
(PID.TID 0000.0001)      cg2d_last_res =   1.11238747815331E-10
(PID.TID 0000.0001) // =======================================================
(PID.TID 0000.0001) // Begin MONITOR dynamic field statistics
(PID.TID 0000.0001) // =======================================================
(PID.TID 0000.0001) %MON time_tsnumber                =                    16
(PID.TID 0000.0001) %MON time_secondsf                =   5.7600000000000E+03
(PID.TID 0000.0001) %MON dynstat_eta_max              =   1.5023809838136E+03
(PID.TID 0000.0001) %MON dynstat_eta_min              =  -1.1058521308509E+03
(PID.TID 0000.0001) %MON dynstat_eta_mean             =   2.1422697344262E-14
(PID.TID 0000.0001) %MON dynstat_eta_sd               =   8.8159155746852E+02
(PID.TID 0000.0001) %MON dynstat_eta_del2             =   4.5610115676274E-01
(PID.TID 0000.0001) %MON dynstat_uvel_max             =   1.9300615786135E+01
(PID.TID 0000.0001) %MON dynstat_uvel_min             =  -1.9318124499111E+01
(PID.TID 0000.0001) %MON dynstat_uvel_mean            =   3.7669425751201E-01
(PID.TID 0000.0001) %MON dynstat_uvel_sd              =   6.1651401186765E+00
(PID.TID 0000.0001) %MON dynstat_uvel_del2            =   1.2393758794188E-03
(PID.TID 0000.0001) %MON dynstat_vvel_max             =   1.9318547925289E+01
(PID.TID 0000.0001) %MON dynstat_vvel_min             =  -1.9301686420988E+01
(PID.TID 0000.0001) %MON dynstat_vvel_mean            =   3.8008356904147E-01
(PID.TID 0000.0001) %MON dynstat_vvel_sd              =   6.1650759949368E+00
(PID.TID 0000.0001) %MON dynstat_vvel_del2            =   1.2398388936138E-03
(PID.TID 0000.0001) %MON dynstat_wvel_max             =   1.7801932452977E-01
(PID.TID 0000.0001) %MON dynstat_wvel_min             =  -2.2075185534851E-01
(PID.TID 0000.0001) %MON dynstat_wvel_mean            =   2.0127455338329E-17
(PID.TID 0000.0001) %MON dynstat_wvel_sd              =   6.0394131796644E-02
(PID.TID 0000.0001) %MON dynstat_wvel_del2            =   6.2596486207367E-05
(PID.TID 0000.0001) %MON dynstat_theta_max            =   1.1553564424165E+03
(PID.TID 0000.0001) %MON dynstat_theta_min            =   2.5675863295835E+02
(PID.TID 0000.0001) %MON dynstat_theta_mean           =   3.2789369642463E+02
(PID.TID 0000.0001) %MON dynstat_theta_sd             =   9.0373484505142E+01
(PID.TID 0000.0001) %MON dynstat_theta_del2           =   6.2503439369735E-04
(PID.TID 0000.0001) %MON dynstat_salt_max             =   2.0319144236735E-02
(PID.TID 0000.0001) %MON dynstat_salt_min             =   0.0000000000000E+00
(PID.TID 0000.0001) %MON dynstat_salt_mean            =   1.8505577617984E-03
(PID.TID 0000.0001) %MON dynstat_salt_sd              =   3.8422524002579E-03
(PID.TID 0000.0001) %MON dynstat_salt_del2            =   6.9666952477021E-07
(PID.TID 0000.0001) %MON advcfl_uvel_max              =   5.7423312866205E-02
(PID.TID 0000.0001) %MON advcfl_vvel_max              =   5.7402073864756E-02
(PID.TID 0000.0001) %MON advcfl_wvel_max              =   8.5086368228546E-03
(PID.TID 0000.0001) %MON advcfl_W_hf_max              =   8.8695280589498E-03
(PID.TID 0000.0001) %MON am_eta_mean                  =  -6.9736906286088E+10
(PID.TID 0000.0001) %MON am_uZo_mean                  =   6.9668553492897E+10
(PID.TID 0000.0001) %MON am_tot_mean                  =  -6.8352793191177E+07
(PID.TID 0000.0001) %MON pe_b_mean                    =   3.2916714466872E+00
(PID.TID 0000.0001) %MON ke_max                       =   1.8977983873401E+02
(PID.TID 0000.0001) %MON ke_mean                      =   3.8151738394735E+01
(PID.TID 0000.0001) %MON ke_vol                       =   5.0986421042785E+19
(PID.TID 0000.0001) %MON vort_r_min                   =  -4.3134048698652E-06
(PID.TID 0000.0001) %MON vort_r_max                   =   4.3136720593556E-06
(PID.TID 0000.0001) %MON vort_a_mean                  =   4.4124393128133E-20
(PID.TID 0000.0001) %MON vort_a_sd                    =   8.4518509077782E-05
(PID.TID 0000.0001) %MON vort_p_mean                  =   4.4124372780445E-20
(PID.TID 0000.0001) %MON vort_p_sd                    =   8.4224139061432E-05
(PID.TID 0000.0001) %MON surfExpan_theta_mean         =  -3.7756558176761E+00
(PID.TID 0000.0001) %MON surfExpan_salt_mean          =  -3.5647803678193E-04
(PID.TID 0000.0001) %MON surfExpan_Heat_mean          =  -3.3288333235767E+02
(PID.TID 0000.0001) %MON En_Budget_T2PE_mean          =   4.1443250901153E+01
(PID.TID 0000.0001) // =======================================================
(PID.TID 0000.0001) // End MONITOR dynamic field statistics
(PID.TID 0000.0001) // =======================================================
(PID.TID 0000.0001)   Exporting atmospheric fluxes at iter.        16
(PID.TID 0000.0001)   Importing oceanic fields at iteration        16
 cg2d: Sum(rhs),rhsMax =   9.31322574615479E-10  1.33696133858966E+04
(PID.TID 0000.0001)      cg2d_init_res =   5.34993898832336E+04
(PID.TID 0000.0001)      cg2d_iters(min,last) =      -1      13
(PID.TID 0000.0001)      cg2d_last_res =   1.17429767578294E-10
(PID.TID 0000.0001) // =======================================================
(PID.TID 0000.0001) // Begin MONITOR dynamic field statistics
(PID.TID 0000.0001) // =======================================================
(PID.TID 0000.0001) %MON time_tsnumber                =                    17
(PID.TID 0000.0001) %MON time_secondsf                =   6.1200000000000E+03
(PID.TID 0000.0001) %MON dynstat_eta_max              =   1.6673858203812E+03
(PID.TID 0000.0001) %MON dynstat_eta_min              =  -1.2326545584636E+03
(PID.TID 0000.0001) %MON dynstat_eta_mean             =   1.2853618406557E-13
(PID.TID 0000.0001) %MON dynstat_eta_sd               =   9.8265842510128E+02
(PID.TID 0000.0001) %MON dynstat_eta_del2             =   4.8130750044142E-01
(PID.TID 0000.0001) %MON dynstat_uvel_max             =   2.0349763155124E+01
(PID.TID 0000.0001) %MON dynstat_uvel_min             =  -2.0369066563052E+01
(PID.TID 0000.0001) %MON dynstat_uvel_mean            =   4.2090368050707E-01
(PID.TID 0000.0001) %MON dynstat_uvel_sd              =   6.4840550653831E+00
(PID.TID 0000.0001) %MON dynstat_uvel_del2            =   1.2958875973026E-03
(PID.TID 0000.0001) %MON dynstat_vvel_max             =   2.0370152939605E+01
(PID.TID 0000.0001) %MON dynstat_vvel_min             =  -2.0350796628783E+01
(PID.TID 0000.0001) %MON dynstat_vvel_mean            =   4.2472675101063E-01
(PID.TID 0000.0001) %MON dynstat_vvel_sd              =   6.4839651199132E+00
(PID.TID 0000.0001) %MON dynstat_vvel_del2            =   1.2964028689283E-03
(PID.TID 0000.0001) %MON dynstat_wvel_max             =   1.8840097906599E-01
(PID.TID 0000.0001) %MON dynstat_wvel_min             =  -2.3133946315290E-01
(PID.TID 0000.0001) %MON dynstat_wvel_mean            =  -4.1512876635305E-17
(PID.TID 0000.0001) %MON dynstat_wvel_sd              =   6.3630421175187E-02
(PID.TID 0000.0001) %MON dynstat_wvel_del2            =   6.5565468692643E-05
(PID.TID 0000.0001) %MON dynstat_theta_max            =   1.1554831719498E+03
(PID.TID 0000.0001) %MON dynstat_theta_min            =   2.5685493425867E+02
(PID.TID 0000.0001) %MON dynstat_theta_mean           =   3.2789377065768E+02
(PID.TID 0000.0001) %MON dynstat_theta_sd             =   9.0374673534742E+01
(PID.TID 0000.0001) %MON dynstat_theta_del2           =   6.3301760966401E-04
(PID.TID 0000.0001) %MON dynstat_salt_max             =   2.0319399417096E-02
(PID.TID 0000.0001) %MON dynstat_salt_min             =   0.0000000000000E+00
(PID.TID 0000.0001) %MON dynstat_salt_mean            =   1.8537274858479E-03
(PID.TID 0000.0001) %MON dynstat_salt_sd              =   3.8453038976457E-03
(PID.TID 0000.0001) %MON dynstat_salt_del2            =   7.2124089100095E-07
(PID.TID 0000.0001) %MON advcfl_uvel_max              =   6.0767241597723E-02
(PID.TID 0000.0001) %MON advcfl_vvel_max              =   6.0743556107222E-02
(PID.TID 0000.0001) %MON advcfl_wvel_max              =   8.9167244898332E-03
(PID.TID 0000.0001) %MON advcfl_W_hf_max              =   9.2518027134555E-03
(PID.TID 0000.0001) %MON am_eta_mean                  =  -7.8347715088210E+10
(PID.TID 0000.0001) %MON am_uZo_mean                  =   7.8264986244534E+10
(PID.TID 0000.0001) %MON am_tot_mean                  =  -8.2728843676132E+07
(PID.TID 0000.0001) %MON pe_b_mean                    =   4.0896561910475E+00
(PID.TID 0000.0001) %MON ke_max                       =   2.1102517162334E+02
(PID.TID 0000.0001) %MON ke_mean                      =   4.2221163244300E+01
(PID.TID 0000.0001) %MON ke_vol                       =   5.0986421042785E+19
(PID.TID 0000.0001) %MON vort_r_min                   =  -4.7795923173425E-06
(PID.TID 0000.0001) %MON vort_r_max                   =   4.7795226583845E-06
(PID.TID 0000.0001) %MON vort_a_mean                  =   1.0295691729898E-19
(PID.TID 0000.0001) %MON vort_a_sd                    =   8.4556558901241E-05
(PID.TID 0000.0001) %MON vort_p_mean                  =   1.0050551006162E-19
(PID.TID 0000.0001) %MON vort_p_sd                    =   8.4225515707300E-05
(PID.TID 0000.0001) %MON surfExpan_theta_mean         =  -3.9280167497085E+00
(PID.TID 0000.0001) %MON surfExpan_salt_mean          =  -3.7195677308082E-04
(PID.TID 0000.0001) %MON surfExpan_Heat_mean          =  -3.4654592421643E+02
(PID.TID 0000.0001) %MON En_Budget_T2PE_mean          =   4.3534294891502E+01
(PID.TID 0000.0001) // =======================================================
(PID.TID 0000.0001) // End MONITOR dynamic field statistics
(PID.TID 0000.0001) // =======================================================
 cg2d: Sum(rhs),rhsMax =   3.72529029846191E-09  1.47337146543627E+04
(PID.TID 0000.0001)      cg2d_init_res =   5.55544244569056E+04
(PID.TID 0000.0001)      cg2d_iters(min,last) =      -1      13
(PID.TID 0000.0001)      cg2d_last_res =   1.23485367899207E-10
(PID.TID 0000.0001) // =======================================================
(PID.TID 0000.0001) // Begin MONITOR dynamic field statistics
(PID.TID 0000.0001) // =======================================================
(PID.TID 0000.0001) %MON time_tsnumber                =                    18
(PID.TID 0000.0001) %MON time_secondsf                =   6.4800000000000E+03
(PID.TID 0000.0001) %MON dynstat_eta_max              =   1.8377753208297E+03
(PID.TID 0000.0001) %MON dynstat_eta_min              =  -1.3642711376637E+03
(PID.TID 0000.0001) %MON dynstat_eta_mean             =   1.2853618406557E-13
(PID.TID 0000.0001) %MON dynstat_eta_sd               =   1.0876081620097E+03
(PID.TID 0000.0001) %MON dynstat_eta_del2             =   5.0570970150500E-01
(PID.TID 0000.0001) %MON dynstat_uvel_max             =   2.1367072495718E+01
(PID.TID 0000.0001) %MON dynstat_uvel_min             =  -2.1388263295381E+01
(PID.TID 0000.0001) %MON dynstat_uvel_mean            =   4.6680271725235E-01
(PID.TID 0000.0001) %MON dynstat_uvel_sd              =   6.7925956352513E+00
(PID.TID 0000.0001) %MON dynstat_uvel_del2            =   1.3499574988935E-03
(PID.TID 0000.0001) %MON dynstat_vvel_max             =   2.1390034154672E+01
(PID.TID 0000.0001) %MON dynstat_vvel_min             =  -2.1368069192532E+01
(PID.TID 0000.0001) %MON dynstat_vvel_mean            =   4.7108071282521E-01
(PID.TID 0000.0001) %MON dynstat_vvel_sd              =   6.7924739416890E+00
(PID.TID 0000.0001) %MON dynstat_vvel_del2            =   1.3505263934508E-03
(PID.TID 0000.0001) %MON dynstat_wvel_max             =   1.9826302938044E-01
(PID.TID 0000.0001) %MON dynstat_wvel_min             =  -2.4098244104703E-01
(PID.TID 0000.0001) %MON dynstat_wvel_mean            =  -1.0063727669165E-16
(PID.TID 0000.0001) %MON dynstat_wvel_sd              =   6.6785780954380E-02
(PID.TID 0000.0001) %MON dynstat_wvel_del2            =   6.8423549562976E-05
(PID.TID 0000.0001) %MON dynstat_theta_max            =   1.1555910095575E+03
(PID.TID 0000.0001) %MON dynstat_theta_min            =   2.5694901143849E+02
(PID.TID 0000.0001) %MON dynstat_theta_mean           =   3.2789365309419E+02
(PID.TID 0000.0001) %MON dynstat_theta_sd             =   9.0376036087820E+01
(PID.TID 0000.0001) %MON dynstat_theta_del2           =   6.3913767371989E-04
(PID.TID 0000.0001) %MON dynstat_salt_max             =   2.0319655613170E-02
(PID.TID 0000.0001) %MON dynstat_salt_min             =   0.0000000000000E+00
(PID.TID 0000.0001) %MON dynstat_salt_mean            =   1.8568989186501E-03
(PID.TID 0000.0001) %MON dynstat_salt_sd              =   3.8484463481619E-03
(PID.TID 0000.0001) %MON dynstat_salt_del2            =   7.4318814340462E-07
(PID.TID 0000.0001) %MON advcfl_uvel_max              =   6.4065614815466E-02
(PID.TID 0000.0001) %MON advcfl_vvel_max              =   6.4040224969559E-02
(PID.TID 0000.0001) %MON advcfl_wvel_max              =   9.2884024386437E-03
(PID.TID 0000.0001) %MON advcfl_W_hf_max              =   9.6110432911208E-03
(PID.TID 0000.0001) %MON am_eta_mean                  =  -8.7330956096451E+10
(PID.TID 0000.0001) %MON am_uZo_mean                  =   8.7232300064070E+10
(PID.TID 0000.0001) %MON am_tot_mean                  =  -9.8656032380768E+07
(PID.TID 0000.0001) %MON pe_b_mean                    =   5.0098710938319E+00
(PID.TID 0000.0001) %MON ke_max                       =   2.3285422210533E+02
(PID.TID 0000.0001) %MON ke_mean                      =   4.6358439763778E+01
(PID.TID 0000.0001) %MON ke_vol                       =   5.0986421042784E+19
(PID.TID 0000.0001) %MON vort_r_min                   =  -5.2603845197434E-06
(PID.TID 0000.0001) %MON vort_r_max                   =   5.2599382772512E-06
(PID.TID 0000.0001) %MON vort_a_mean                  =  -2.4513551737851E-20
(PID.TID 0000.0001) %MON vort_a_sd                    =   8.4596274671406E-05
(PID.TID 0000.0001) %MON vort_p_mean                  =  -2.2062183823545E-20
(PID.TID 0000.0001) %MON vort_p_sd                    =   8.4226898318500E-05
(PID.TID 0000.0001) %MON surfExpan_theta_mean         =  -4.0673546863451E+00
(PID.TID 0000.0001) %MON surfExpan_salt_mean          =  -3.8635587328731E-04
(PID.TID 0000.0001) %MON surfExpan_Heat_mean          =  -3.5908707457179E+02
(PID.TID 0000.0001) %MON En_Budget_T2PE_mean          =   4.5547604692977E+01
(PID.TID 0000.0001) // =======================================================
(PID.TID 0000.0001) // End MONITOR dynamic field statistics
(PID.TID 0000.0001) // =======================================================
 cg2d: Sum(rhs),rhsMax =   2.60770320892334E-08  1.61373173637774E+04
(PID.TID 0000.0001)      cg2d_init_res =   5.74422227257645E+04
(PID.TID 0000.0001)      cg2d_iters(min,last) =      -1      13
(PID.TID 0000.0001)      cg2d_last_res =   1.29635654861443E-10
(PID.TID 0000.0001) // =======================================================
(PID.TID 0000.0001) // Begin MONITOR dynamic field statistics
(PID.TID 0000.0001) // =======================================================
(PID.TID 0000.0001) %MON time_tsnumber                =                    19
(PID.TID 0000.0001) %MON time_secondsf                =   6.8400000000000E+03
(PID.TID 0000.0001) %MON dynstat_eta_max              =   2.0131694090006E+03
(PID.TID 0000.0001) %MON dynstat_eta_min              =  -1.5002727272611E+03
(PID.TID 0000.0001) %MON dynstat_eta_mean             =  -5.1414473626228E-13
(PID.TID 0000.0001) %MON dynstat_eta_sd               =   1.1961249144913E+03
(PID.TID 0000.0001) %MON dynstat_eta_del2             =   5.2928405663936E-01
(PID.TID 0000.0001) %MON dynstat_uvel_max             =   2.2350650421519E+01
(PID.TID 0000.0001) %MON dynstat_uvel_min             =  -2.2373817996842E+01
(PID.TID 0000.0001) %MON dynstat_uvel_mean            =   5.1424380349203E-01
(PID.TID 0000.0001) %MON dynstat_uvel_sd              =   7.0905091348919E+00
(PID.TID 0000.0001) %MON dynstat_uvel_del2            =   1.4016251222893E-03
(PID.TID 0000.0001) %MON dynstat_vvel_max             =   2.2376264758237E+01
(PID.TID 0000.0001) %MON dynstat_vvel_min             =  -2.2351614276950E+01
(PID.TID 0000.0001) %MON dynstat_vvel_mean            =   5.1899663747681E-01
(PID.TID 0000.0001) %MON dynstat_vvel_sd              =   7.0903492338291E+00
(PID.TID 0000.0001) %MON dynstat_vvel_del2            =   1.4022456683787E-03
(PID.TID 0000.0001) %MON dynstat_wvel_max             =   2.0925517004308E-01
(PID.TID 0000.0001) %MON dynstat_wvel_min             =  -2.4964096150375E-01
(PID.TID 0000.0001) %MON dynstat_wvel_mean            =   1.8617896187955E-16
(PID.TID 0000.0001) %MON dynstat_wvel_sd              =   6.9856761094146E-02
(PID.TID 0000.0001) %MON dynstat_wvel_del2            =   7.1154976420615E-05
(PID.TID 0000.0001) %MON dynstat_theta_max            =   1.1556760564434E+03
(PID.TID 0000.0001) %MON dynstat_theta_min            =   2.5704090173744E+02
(PID.TID 0000.0001) %MON dynstat_theta_mean           =   3.2789334811586E+02
(PID.TID 0000.0001) %MON dynstat_theta_sd             =   9.0377565752052E+01
(PID.TID 0000.0001) %MON dynstat_theta_del2           =   6.4270401709431E-04
(PID.TID 0000.0001) %MON dynstat_salt_max             =   2.0319912887774E-02
(PID.TID 0000.0001) %MON dynstat_salt_min             =   0.0000000000000E+00
(PID.TID 0000.0001) %MON dynstat_salt_mean            =   1.8600775191242E-03
(PID.TID 0000.0001) %MON dynstat_salt_sd              =   3.8517094234359E-03
(PID.TID 0000.0001) %MON dynstat_salt_del2            =   7.6190046761910E-07
(PID.TID 0000.0001) %MON advcfl_uvel_max              =   6.7283180897078E-02
(PID.TID 0000.0001) %MON advcfl_vvel_max              =   6.7256509218313E-02
(PID.TID 0000.0001) %MON advcfl_wvel_max              =   9.6221355611725E-03
(PID.TID 0000.0001) %MON advcfl_W_hf_max              =   9.9285024969726E-03
(PID.TID 0000.0001) %MON am_eta_mean                  =  -9.6659426647191E+10
(PID.TID 0000.0001) %MON am_uZo_mean                  =   9.6543292780550E+10
(PID.TID 0000.0001) %MON am_tot_mean                  =  -1.1613386664050E+08
(PID.TID 0000.0001) %MON pe_b_mean                    =   6.0594709575844E+00
(PID.TID 0000.0001) %MON ke_max                       =   2.5516008365510E+02
(PID.TID 0000.0001) %MON ke_mean                      =   5.0541088124488E+01
(PID.TID 0000.0001) %MON ke_vol                       =   5.0986421042784E+19
(PID.TID 0000.0001) %MON vort_r_min                   =  -5.7544267560010E-06
(PID.TID 0000.0001) %MON vort_r_max                   =   5.7535697000022E-06
(PID.TID 0000.0001) %MON vort_a_mean                  =  -8.3346075908695E-20
(PID.TID 0000.0001) %MON vort_a_sd                    =   8.4637552998288E-05
(PID.TID 0000.0001) %MON vort_p_mean                  =  -8.3346022633085E-20
(PID.TID 0000.0001) %MON vort_p_sd                    =   8.4228291115024E-05
(PID.TID 0000.0001) %MON surfExpan_theta_mean         =  -4.1933426301312E+00
(PID.TID 0000.0001) %MON surfExpan_salt_mean          =  -3.9964263438102E-04
(PID.TID 0000.0001) %MON surfExpan_Heat_mean          =  -3.7047591475259E+02
(PID.TID 0000.0001) %MON En_Budget_T2PE_mean          =   4.7480925947476E+01
(PID.TID 0000.0001) // =======================================================
(PID.TID 0000.0001) // End MONITOR dynamic field statistics
(PID.TID 0000.0001) // =======================================================
 cg2d: Sum(rhs),rhsMax =  -1.11758708953857E-08  1.75777973673265E+04
(PID.TID 0000.0001)      cg2d_init_res =   5.91575777213995E+04
(PID.TID 0000.0001)      cg2d_iters(min,last) =      -1      13
(PID.TID 0000.0001)      cg2d_last_res =   1.36058416035842E-10
(PID.TID 0000.0001) // =======================================================
(PID.TID 0000.0001) // Begin MONITOR dynamic field statistics
(PID.TID 0000.0001) // =======================================================
(PID.TID 0000.0001) %MON time_tsnumber                =                    20
(PID.TID 0000.0001) %MON time_secondsf                =   7.2000000000000E+03
(PID.TID 0000.0001) %MON dynstat_eta_max              =   2.1932375833971E+03
(PID.TID 0000.0001) %MON dynstat_eta_min              =  -1.6402168021434E+03
(PID.TID 0000.0001) %MON dynstat_eta_mean             =  -4.2845394688523E-14
(PID.TID 0000.0001) %MON dynstat_eta_sd               =   1.3078831413022E+03
(PID.TID 0000.0001) %MON dynstat_eta_del2             =   5.5203389006611E-01
(PID.TID 0000.0001) %MON dynstat_uvel_max             =   2.3328636918401E+01
(PID.TID 0000.0001) %MON dynstat_uvel_min             =  -2.3352064473990E+01
(PID.TID 0000.0001) %MON dynstat_uvel_mean            =   5.6307575882363E-01
(PID.TID 0000.0001) %MON dynstat_uvel_sd              =   7.3775854231995E+00
(PID.TID 0000.0001) %MON dynstat_uvel_del2            =   1.4508660557663E-03
(PID.TID 0000.0001) %MON dynstat_vvel_max             =   2.3353863452061E+01
(PID.TID 0000.0001) %MON dynstat_vvel_min             =  -2.3329161183552E+01
(PID.TID 0000.0001) %MON dynstat_vvel_mean            =   5.6832204789946E-01
(PID.TID 0000.0001) %MON dynstat_vvel_sd              =   7.3773802532296E+00
(PID.TID 0000.0001) %MON dynstat_vvel_del2            =   1.4515415648665E-03
(PID.TID 0000.0001) %MON dynstat_wvel_max             =   2.2023379927865E-01
(PID.TID 0000.0001) %MON dynstat_wvel_min             =  -2.5729283055385E-01
(PID.TID 0000.0001) %MON dynstat_wvel_mean            =  -6.7930161766862E-17
(PID.TID 0000.0001) %MON dynstat_wvel_sd              =   7.2840083639180E-02
(PID.TID 0000.0001) %MON dynstat_wvel_del2            =   7.3747424706200E-05
(PID.TID 0000.0001) %MON dynstat_theta_max            =   1.1557624831780E+03
(PID.TID 0000.0001) %MON dynstat_theta_min            =   2.5713060117790E+02
(PID.TID 0000.0001) %MON dynstat_theta_mean           =   3.2789285143344E+02
(PID.TID 0000.0001) %MON dynstat_theta_sd             =   9.0379261205303E+01
(PID.TID 0000.0001) %MON dynstat_theta_del2           =   6.4373667384532E-04
(PID.TID 0000.0001) %MON dynstat_salt_max             =   2.0320171312657E-02
(PID.TID 0000.0001) %MON dynstat_salt_min             =   0.0000000000000E+00
(PID.TID 0000.0001) %MON dynstat_salt_mean            =   1.8632719853873E-03
(PID.TID 0000.0001) %MON dynstat_salt_sd              =   3.8551015395728E-03
(PID.TID 0000.0001) %MON dynstat_salt_del2            =   7.7682757569775E-07
(PID.TID 0000.0001) %MON advcfl_uvel_max              =   7.0413965382527E-02
(PID.TID 0000.0001) %MON advcfl_vvel_max              =   7.0386322280151E-02
(PID.TID 0000.0001) %MON advcfl_wvel_max              =   9.9170684153518E-03
(PID.TID 0000.0001) %MON advcfl_W_hf_max              =   1.0250711418902E-02
(PID.TID 0000.0001) %MON am_eta_mean                  =  -1.0630494810306E+11
(PID.TID 0000.0001) %MON am_uZo_mean                  =   1.0616979885550E+11
(PID.TID 0000.0001) %MON am_tot_mean                  =  -1.3514924756540E+08
(PID.TID 0000.0001) %MON pe_b_mean                    =   7.2446851940129E+00
(PID.TID 0000.0001) %MON ke_max                       =   2.7784661089490E+02
(PID.TID 0000.0001) %MON ke_mean                      =   5.4747275168926E+01
(PID.TID 0000.0001) %MON ke_vol                       =   5.0986421042785E+19
(PID.TID 0000.0001) %MON vort_r_min                   =  -6.2603160841047E-06
(PID.TID 0000.0001) %MON vort_r_max                   =   6.2590177888911E-06
(PID.TID 0000.0001) %MON vort_a_mean                  =  -2.4513551737851E-19
(PID.TID 0000.0001) %MON vort_a_sd                    =   8.4680284693093E-05
(PID.TID 0000.0001) %MON vort_p_mean                  =  -2.4513534508015E-19
(PID.TID 0000.0001) %MON vort_p_sd                    =   8.4229697406202E-05
(PID.TID 0000.0001) %MON surfExpan_theta_mean         =  -4.3057038286664E+00
(PID.TID 0000.0001) %MON surfExpan_salt_mean          =  -4.1178584025680E-04
(PID.TID 0000.0001) %MON surfExpan_Heat_mean          =  -3.8068563472304E+02
(PID.TID 0000.0001) %MON En_Budget_T2PE_mean          =   4.9332261285321E+01
(PID.TID 0000.0001) // =======================================================
(PID.TID 0000.0001) // End MONITOR dynamic field statistics
(PID.TID 0000.0001) // =======================================================
 cg2d: Sum(rhs),rhsMax =  -1.86264514923096E-08  1.90529102238355E+04
(PID.TID 0000.0001)      cg2d_init_res =   6.06958651531106E+04
(PID.TID 0000.0001)      cg2d_iters(min,last) =      -1      14
(PID.TID 0000.0001)      cg2d_last_res =   7.11934619936796E-12
(PID.TID 0000.0001) // =======================================================
(PID.TID 0000.0001) // Begin MONITOR dynamic field statistics
(PID.TID 0000.0001) // =======================================================
(PID.TID 0000.0001) %MON time_tsnumber                =                    21
(PID.TID 0000.0001) %MON time_secondsf                =   7.5600000000000E+03
(PID.TID 0000.0001) %MON dynstat_eta_max              =   2.3776886979481E+03
(PID.TID 0000.0001) %MON dynstat_eta_min              =  -1.7836532482995E+03
(PID.TID 0000.0001) %MON dynstat_eta_mean             =  -2.1422697344262E-13
(PID.TID 0000.0001) %MON dynstat_eta_sd               =   1.4225485566603E+03
(PID.TID 0000.0001) %MON dynstat_eta_del2             =   5.7398462617145E-01
(PID.TID 0000.0001) %MON dynstat_uvel_max             =   2.4281249022771E+01
(PID.TID 0000.0001) %MON dynstat_uvel_min             =  -2.4306544252041E+01
(PID.TID 0000.0001) %MON dynstat_uvel_mean            =   6.1314431245529E-01
(PID.TID 0000.0001) %MON dynstat_uvel_sd              =   7.6536589780996E+00
(PID.TID 0000.0001) %MON dynstat_uvel_del2            =   1.4977159810505E-03
(PID.TID 0000.0001) %MON dynstat_vvel_max             =   2.4308774104622E+01
(PID.TID 0000.0001) %MON dynstat_vvel_min             =  -2.4281324023204E+01
(PID.TID 0000.0001) %MON dynstat_vvel_mean            =   6.1890136918094E-01
(PID.TID 0000.0001) %MON dynstat_vvel_sd              =   7.6534007193311E+00
(PID.TID 0000.0001) %MON dynstat_vvel_del2            =   1.4984446170273E-03
(PID.TID 0000.0001) %MON dynstat_wvel_max             =   2.3067271927759E-01
(PID.TID 0000.0001) %MON dynstat_wvel_min             =  -2.6392958826465E-01
(PID.TID 0000.0001) %MON dynstat_wvel_mean            =  -2.8430030665390E-16
(PID.TID 0000.0001) %MON dynstat_wvel_sd              =   7.5732855410995E-02
(PID.TID 0000.0001) %MON dynstat_wvel_del2            =   7.6192737241686E-05
(PID.TID 0000.0001) %MON dynstat_theta_max            =   1.1558739006588E+03
(PID.TID 0000.0001) %MON dynstat_theta_min            =   2.5721810693495E+02
(PID.TID 0000.0001) %MON dynstat_theta_mean           =   3.2789216468443E+02
(PID.TID 0000.0001) %MON dynstat_theta_sd             =   9.0381117192971E+01
(PID.TID 0000.0001) %MON dynstat_theta_del2           =   6.4297911322452E-04
(PID.TID 0000.0001) %MON dynstat_salt_max             =   2.0320430970907E-02
(PID.TID 0000.0001) %MON dynstat_salt_min             =   0.0000000000000E+00
(PID.TID 0000.0001) %MON dynstat_salt_mean            =   1.8664901626674E-03
(PID.TID 0000.0001) %MON dynstat_salt_sd              =   3.8586512768124E-03
(PID.TID 0000.0001) %MON dynstat_salt_del2            =   7.8870959817771E-07
(PID.TID 0000.0001) %MON advcfl_uvel_max              =   7.3452485931607E-02
(PID.TID 0000.0001) %MON advcfl_vvel_max              =   7.3424098176992E-02
(PID.TID 0000.0001) %MON advcfl_wvel_max              =   1.0172874922406E-02
(PID.TID 0000.0001) %MON advcfl_W_hf_max              =   1.0620300638444E-02
(PID.TID 0000.0001) %MON am_eta_mean                  =  -1.1623844338566E+11
(PID.TID 0000.0001) %MON am_uZo_mean                  =   1.1608276784548E+11
(PID.TID 0000.0001) %MON am_tot_mean                  =  -1.5567554018352E+08
(PID.TID 0000.0001) %MON pe_b_mean                    =   8.5706909242362E+00
(PID.TID 0000.0001) %MON ke_max                       =   3.0081956941572E+02
(PID.TID 0000.0001) %MON ke_mean                      =   5.8956011588290E+01
(PID.TID 0000.0001) %MON ke_vol                       =   5.0986421042785E+19
(PID.TID 0000.0001) %MON vort_r_min                   =  -6.7765826525238E-06
(PID.TID 0000.0001) %MON vort_r_max                   =   6.7748155494783E-06
(PID.TID 0000.0001) %MON vort_a_mean                  =  -5.3929813823273E-20
(PID.TID 0000.0001) %MON vort_a_sd                    =   8.4724358824737E-05
(PID.TID 0000.0001) %MON vort_p_mean                  =  -5.3929772396507E-20
(PID.TID 0000.0001) %MON vort_p_sd                    =   8.4231123395737E-05
(PID.TID 0000.0001) %MON surfExpan_theta_mean         =  -4.4042063879120E+00
(PID.TID 0000.0001) %MON surfExpan_salt_mean          =  -4.2275829362520E-04
(PID.TID 0000.0001) %MON surfExpan_Heat_mean          =  -3.8969300122928E+02
(PID.TID 0000.0001) %MON En_Budget_T2PE_mean          =   5.1099797371022E+01
(PID.TID 0000.0001) // =======================================================
(PID.TID 0000.0001) // End MONITOR dynamic field statistics
(PID.TID 0000.0001) // =======================================================
 cg2d: Sum(rhs),rhsMax =   1.86264514923096E-09  2.05607397228408E+04
(PID.TID 0000.0001)      cg2d_init_res =   6.20530180780284E+04
(PID.TID 0000.0001)      cg2d_iters(min,last) =      -1      14
(PID.TID 0000.0001)      cg2d_last_res =   7.54743745554447E-12
(PID.TID 0000.0001) // =======================================================
(PID.TID 0000.0001) // Begin MONITOR dynamic field statistics
(PID.TID 0000.0001) // =======================================================
(PID.TID 0000.0001) %MON time_tsnumber                =                    22
(PID.TID 0000.0001) %MON time_secondsf                =   7.9200000000000E+03
(PID.TID 0000.0001) %MON dynstat_eta_max              =   2.5662789305248E+03
(PID.TID 0000.0001) %MON dynstat_eta_min              =  -1.9301308871707E+03
(PID.TID 0000.0001) %MON dynstat_eta_mean             =   5.1414473626228E-13
(PID.TID 0000.0001) %MON dynstat_eta_sd               =   1.5397791194191E+03
(PID.TID 0000.0001) %MON dynstat_eta_del2             =   5.9517555276592E-01
(PID.TID 0000.0001) %MON dynstat_uvel_max             =   2.5198704093437E+01
(PID.TID 0000.0001) %MON dynstat_uvel_min             =  -2.5225906716951E+01
(PID.TID 0000.0001) %MON dynstat_uvel_mean            =   6.6429258585508E-01
(PID.TID 0000.0001) %MON dynstat_uvel_sd              =   7.9186026554593E+00
(PID.TID 0000.0001) %MON dynstat_uvel_del2            =   1.5421057139824E-03
(PID.TID 0000.0001) %MON dynstat_vvel_max             =   2.5228481601674E+01
(PID.TID 0000.0001) %MON dynstat_vvel_min             =  -2.5198333257475E+01
(PID.TID 0000.0001) %MON dynstat_vvel_mean            =   6.7057652327829E-01
(PID.TID 0000.0001) %MON dynstat_vvel_sd              =   7.9182831072987E+00
(PID.TID 0000.0001) %MON dynstat_vvel_del2            =   1.5428771417126E-03
(PID.TID 0000.0001) %MON dynstat_wvel_max             =   2.4056113358338E-01
(PID.TID 0000.0001) %MON dynstat_wvel_min             =  -2.6955236495051E-01
(PID.TID 0000.0001) %MON dynstat_wvel_mean            =  -6.5414229849571E-17
(PID.TID 0000.0001) %MON dynstat_wvel_sd              =   7.8532845987177E-02
(PID.TID 0000.0001) %MON dynstat_wvel_del2            =   7.8487575356025E-05
(PID.TID 0000.0001) %MON dynstat_theta_max            =   1.1560517768835E+03
(PID.TID 0000.0001) %MON dynstat_theta_min            =   2.5730341531941E+02
(PID.TID 0000.0001) %MON dynstat_theta_mean           =   3.2789128666391E+02
(PID.TID 0000.0001) %MON dynstat_theta_sd             =   9.0383129605491E+01
(PID.TID 0000.0001) %MON dynstat_theta_del2           =   6.4162841541925E-04
(PID.TID 0000.0001) %MON dynstat_salt_max             =   2.0320691959239E-02
(PID.TID 0000.0001) %MON dynstat_salt_min             =   0.0000000000000E+00
(PID.TID 0000.0001) %MON dynstat_salt_mean            =   1.8697413325913E-03
(PID.TID 0000.0001) %MON dynstat_salt_sd              =   3.8623802998061E-03
(PID.TID 0000.0001) %MON dynstat_salt_del2            =   7.9745357134510E-07
(PID.TID 0000.0001) %MON advcfl_uvel_max              =   7.6393554999316E-02
(PID.TID 0000.0001) %MON advcfl_vvel_max              =   7.6364631779795E-02
(PID.TID 0000.0001) %MON advcfl_wvel_max              =   1.0389598649056E-02
(PID.TID 0000.0001) %MON advcfl_W_hf_max              =   1.0959570606593E-02
(PID.TID 0000.0001) %MON am_eta_mean                  =  -1.2643001810084E+11
(PID.TID 0000.0001) %MON am_uZo_mean                  =   1.2625234498182E+11
(PID.TID 0000.0001) %MON am_tot_mean                  =  -1.7767311902101E+08
(PID.TID 0000.0001) %MON pe_b_mean                    =   1.0041497561609E+01
(PID.TID 0000.0001) %MON ke_max                       =   3.2398646047904E+02
(PID.TID 0000.0001) %MON ke_mean                      =   6.3147216447887E+01
(PID.TID 0000.0001) %MON ke_vol                       =   5.0986421042784E+19
(PID.TID 0000.0001) %MON vort_r_min                   =  -7.3016774150071E-06
(PID.TID 0000.0001) %MON vort_r_max                   =   7.2994173580549E-06
(PID.TID 0000.0001) %MON vort_a_mean                  =  -4.4124393128133E-20
(PID.TID 0000.0001) %MON vort_a_sd                    =   8.4769657244531E-05
(PID.TID 0000.0001) %MON vort_p_mean                  =  -4.4124356291782E-20
(PID.TID 0000.0001) %MON vort_p_sd                    =   8.4232572547225E-05
(PID.TID 0000.0001) %MON surfExpan_theta_mean         =  -4.4886658575118E+00
(PID.TID 0000.0001) %MON surfExpan_salt_mean          =  -4.3253493609324E-04
(PID.TID 0000.0001) %MON surfExpan_Heat_mean          =  -3.9747870966870E+02
(PID.TID 0000.0001) %MON En_Budget_T2PE_mean          =   5.2781845338630E+01
(PID.TID 0000.0001) // =======================================================
(PID.TID 0000.0001) // End MONITOR dynamic field statistics
(PID.TID 0000.0001) // =======================================================
 cg2d: Sum(rhs),rhsMax =   1.67638063430786E-08  2.21000299418779E+04
(PID.TID 0000.0001)      cg2d_init_res =   6.32255189111318E+04
(PID.TID 0000.0001)      cg2d_iters(min,last) =      -1      14
(PID.TID 0000.0001)      cg2d_last_res =   8.01422592196736E-12
(PID.TID 0000.0001) // =======================================================
(PID.TID 0000.0001) // Begin MONITOR dynamic field statistics
(PID.TID 0000.0001) // =======================================================
(PID.TID 0000.0001) %MON time_tsnumber                =                    23
(PID.TID 0000.0001) %MON time_secondsf                =   8.2800000000000E+03
(PID.TID 0000.0001) %MON dynstat_eta_max              =   2.7619301438408E+03
(PID.TID 0000.0001) %MON dynstat_eta_min              =  -2.0792040051810E+03
(PID.TID 0000.0001) %MON dynstat_eta_mean             =   3.8560855219671E-13
(PID.TID 0000.0001) %MON dynstat_eta_sd               =   1.6592260562567E+03
(PID.TID 0000.0001) %MON dynstat_eta_del2             =   6.1566118227224E-01
(PID.TID 0000.0001) %MON dynstat_uvel_max             =   2.6148392908122E+01
(PID.TID 0000.0001) %MON dynstat_uvel_min             =  -2.6146308483867E+01
(PID.TID 0000.0001) %MON dynstat_uvel_mean            =   7.1636164418460E-01
(PID.TID 0000.0001) %MON dynstat_uvel_sd              =   8.1723434752934E+00
(PID.TID 0000.0001) %MON dynstat_uvel_del2            =   1.5840378840335E-03
(PID.TID 0000.0001) %MON dynstat_vvel_max             =   2.6138126050239E+01
(PID.TID 0000.0001) %MON dynstat_vvel_min             =  -2.6118577453069E+01
(PID.TID 0000.0001) %MON dynstat_vvel_mean            =   7.2318760812535E-01
(PID.TID 0000.0001) %MON dynstat_vvel_sd              =   8.1719537522951E+00
(PID.TID 0000.0001) %MON dynstat_vvel_del2            =   1.5848450739297E-03
(PID.TID 0000.0001) %MON dynstat_wvel_max             =   2.4988638543219E-01
(PID.TID 0000.0001) %MON dynstat_wvel_min             =  -2.7416935719177E-01
(PID.TID 0000.0001) %MON dynstat_wvel_mean            =  -6.7930161766862E-17
(PID.TID 0000.0001) %MON dynstat_wvel_sd              =   8.1237412202155E-02
(PID.TID 0000.0001) %MON dynstat_wvel_del2            =   8.0627941044104E-05
(PID.TID 0000.0001) %MON dynstat_theta_max            =   1.1562212622336E+03
(PID.TID 0000.0001) %MON dynstat_theta_min            =   2.5738653073811E+02
(PID.TID 0000.0001) %MON dynstat_theta_mean           =   3.2789021433678E+02
(PID.TID 0000.0001) %MON dynstat_theta_sd             =   9.0385294984465E+01
(PID.TID 0000.0001) %MON dynstat_theta_del2           =   6.4117491884004E-04
(PID.TID 0000.0001) %MON dynstat_salt_max             =   2.0320954389939E-02
(PID.TID 0000.0001) %MON dynstat_salt_min             =   0.0000000000000E+00
(PID.TID 0000.0001) %MON dynstat_salt_mean            =   1.8730367508414E-03
(PID.TID 0000.0001) %MON dynstat_salt_sd              =   3.8663140611687E-03
(PID.TID 0000.0001) %MON dynstat_salt_del2            =   8.0450097352197E-07
(PID.TID 0000.0001) %MON advcfl_uvel_max              =   7.9232190095627E-02
(PID.TID 0000.0001) %MON advcfl_vvel_max              =   7.9202936923083E-02
(PID.TID 0000.0001) %MON advcfl_wvel_max              =   1.0567555523451E-02
(PID.TID 0000.0001) %MON advcfl_W_hf_max              =   1.1268322476906E-02
(PID.TID 0000.0001) %MON am_eta_mean                  =  -1.3684904409718E+11
(PID.TID 0000.0001) %MON am_uZo_mean                  =   1.3664795657090E+11
(PID.TID 0000.0001) %MON am_tot_mean                  =  -2.0108752628371E+08
(PID.TID 0000.0001) %MON pe_b_mean                    =   1.1659844367058E+01
(PID.TID 0000.0001) %MON ke_max                       =   3.4725625076974E+02
(PID.TID 0000.0001) %MON ke_mean                      =   6.7302100164905E+01
(PID.TID 0000.0001) %MON ke_vol                       =   5.0986421042785E+19
(PID.TID 0000.0001) %MON vort_r_min                   =  -7.8339669819420E-06
(PID.TID 0000.0001) %MON vort_r_max                   =   7.8311938896334E-06
(PID.TID 0000.0001) %MON vort_a_mean                  =   2.4758687255230E-19
(PID.TID 0000.0001) %MON vort_a_sd                    =   8.4816061295839E-05
(PID.TID 0000.0001) %MON vort_p_mean                  =   2.4758664905867E-19
(PID.TID 0000.0001) %MON vort_p_sd                    =   8.4234051951507E-05
(PID.TID 0000.0001) %MON surfExpan_theta_mean         =  -4.5589451772336E+00
(PID.TID 0000.0001) %MON surfExpan_salt_mean          =  -4.4109364077853E-04
(PID.TID 0000.0001) %MON surfExpan_Heat_mean          =  -4.0402733242353E+02
(PID.TID 0000.0001) %MON En_Budget_T2PE_mean          =   5.4377065684975E+01
(PID.TID 0000.0001) // =======================================================
(PID.TID 0000.0001) // End MONITOR dynamic field statistics
(PID.TID 0000.0001) // =======================================================
 cg2d: Sum(rhs),rhsMax =   1.67638063430786E-08  2.36691044924564E+04
(PID.TID 0000.0001)      cg2d_init_res =   6.42103717451489E+04
(PID.TID 0000.0001)      cg2d_iters(min,last) =      -1      14
(PID.TID 0000.0001)      cg2d_last_res =   8.51991249833130E-12
(PID.TID 0000.0001) // =======================================================
(PID.TID 0000.0001) // Begin MONITOR dynamic field statistics
(PID.TID 0000.0001) // =======================================================
(PID.TID 0000.0001) %MON time_tsnumber                =                    24
(PID.TID 0000.0001) %MON time_secondsf                =   8.6400000000000E+03
(PID.TID 0000.0001) %MON dynstat_eta_max              =   2.9626385385623E+03
(PID.TID 0000.0001) %MON dynstat_eta_min              =  -2.2304380744067E+03
(PID.TID 0000.0001) %MON dynstat_eta_mean             =   8.5690789377047E-14
(PID.TID 0000.0001) %MON dynstat_eta_sd               =   1.7805348909336E+03
(PID.TID 0000.0001) %MON dynstat_eta_del2             =   6.3550337464931E-01
(PID.TID 0000.0001) %MON dynstat_uvel_max             =   2.7067840950395E+01
(PID.TID 0000.0001) %MON dynstat_uvel_min             =  -2.7065786586112E+01
(PID.TID 0000.0001) %MON dynstat_uvel_mean            =   7.6919104288572E-01
(PID.TID 0000.0001) %MON dynstat_uvel_sd              =   8.4148437552587E+00
(PID.TID 0000.0001) %MON dynstat_uvel_del2            =   1.6234487810418E-03
(PID.TID 0000.0001) %MON dynstat_vvel_max             =   2.7057491123812E+01
(PID.TID 0000.0001) %MON dynstat_vvel_min             =  -2.7035549955313E+01
(PID.TID 0000.0001) %MON dynstat_vvel_mean            =   7.7657340463595E-01
(PID.TID 0000.0001) %MON dynstat_vvel_sd              =   8.4143747350055E+00
(PID.TID 0000.0001) %MON dynstat_vvel_del2            =   1.6242835728873E-03
(PID.TID 0000.0001) %MON dynstat_wvel_max             =   2.5861005296010E-01
(PID.TID 0000.0001) %MON dynstat_wvel_min             =  -2.7779585106325E-01
(PID.TID 0000.0001) %MON dynstat_wvel_mean            =  -6.2898297932280E-17
(PID.TID 0000.0001) %MON dynstat_wvel_sd              =   8.3844899933172E-02
(PID.TID 0000.0001) %MON dynstat_wvel_del2            =   8.2614973944778E-05
(PID.TID 0000.0001) %MON dynstat_theta_max            =   1.1564015895030E+03
(PID.TID 0000.0001) %MON dynstat_theta_min            =   2.5746745929743E+02
(PID.TID 0000.0001) %MON dynstat_theta_mean           =   3.2788895133811E+02
(PID.TID 0000.0001) %MON dynstat_theta_sd             =   9.0387606026563E+01
(PID.TID 0000.0001) %MON dynstat_theta_del2           =   6.4280498531847E-04
(PID.TID 0000.0001) %MON dynstat_salt_max             =   2.0321218392247E-02
(PID.TID 0000.0001) %MON dynstat_salt_min             =   0.0000000000000E+00
(PID.TID 0000.0001) %MON dynstat_salt_mean            =   1.8763865869204E-03
(PID.TID 0000.0001) %MON dynstat_salt_sd              =   3.8704746775746E-03
(PID.TID 0000.0001) %MON dynstat_salt_del2            =   8.1074481626265E-07
(PID.TID 0000.0001) %MON advcfl_uvel_max              =   8.1963550458498E-02
(PID.TID 0000.0001) %MON advcfl_vvel_max              =   8.1934154714081E-02
(PID.TID 0000.0001) %MON advcfl_wvel_max              =   1.0707334730489E-02
(PID.TID 0000.0001) %MON advcfl_W_hf_max              =   1.1546682731472E-02
(PID.TID 0000.0001) %MON am_eta_mean                  =  -1.4746424610029E+11
(PID.TID 0000.0001) %MON am_uZo_mean                  =   1.4723839670216E+11
(PID.TID 0000.0001) %MON am_tot_mean                  =  -2.2584939813132E+08
(PID.TID 0000.0001) %MON pe_b_mean                    =   1.3427112016115E+01
(PID.TID 0000.0001) %MON ke_max                       =   3.7053928039642E+02
(PID.TID 0000.0001) %MON ke_mean                      =   7.1403009359959E+01
(PID.TID 0000.0001) %MON ke_vol                       =   5.0986421042785E+19
(PID.TID 0000.0001) %MON vort_r_min                   =  -8.3717366369263E-06
(PID.TID 0000.0001) %MON vort_r_max                   =   8.3684353228654E-06
(PID.TID 0000.0001) %MON vort_a_mean                  =   1.0295691729898E-19
(PID.TID 0000.0001) %MON vort_a_sd                    =   8.4863444801213E-05
(PID.TID 0000.0001) %MON vort_p_mean                  =   1.0540817005623E-19
(PID.TID 0000.0001) %MON vort_p_sd                    =   8.4235565149581E-05
(PID.TID 0000.0001) %MON surfExpan_theta_mean         =  -4.6149508363819E+00
(PID.TID 0000.0001) %MON surfExpan_salt_mean          =  -4.4841574428414E-04
(PID.TID 0000.0001) %MON surfExpan_Heat_mean          =  -4.0932708729341E+02
(PID.TID 0000.0001) %MON En_Budget_T2PE_mean          =   5.5884155100587E+01
(PID.TID 0000.0001) // =======================================================
(PID.TID 0000.0001) // End MONITOR dynamic field statistics
(PID.TID 0000.0001) // =======================================================
(PID.TID 0000.0001)   Exporting atmospheric fluxes at iter.        24
(PID.TID 0000.0001)   Importing oceanic fields at iteration        24
 cg2d: Sum(rhs),rhsMax =  -2.98023223876953E-08  2.52648440738964E+04
(PID.TID 0000.0001)      cg2d_init_res =   6.50050989079964E+04
(PID.TID 0000.0001)      cg2d_iters(min,last) =      -1      14
(PID.TID 0000.0001)      cg2d_last_res =   9.06251186686799E-12
(PID.TID 0000.0001) // =======================================================
(PID.TID 0000.0001) // Begin MONITOR dynamic field statistics
(PID.TID 0000.0001) // =======================================================
(PID.TID 0000.0001) %MON time_tsnumber                =                    25
(PID.TID 0000.0001) %MON time_secondsf                =   9.0000000000000E+03
(PID.TID 0000.0001) %MON dynstat_eta_max              =   3.1658451777007E+03
(PID.TID 0000.0001) %MON dynstat_eta_min              =  -2.3834139104385E+03
(PID.TID 0000.0001) %MON dynstat_eta_mean             =  -5.9983552563933E-13
(PID.TID 0000.0001) %MON dynstat_eta_sd               =   1.9033464727046E+03
(PID.TID 0000.0001) %MON dynstat_eta_del2             =   6.5475543663293E-01
(PID.TID 0000.0001) %MON dynstat_uvel_max             =   2.7953130936403E+01
(PID.TID 0000.0001) %MON dynstat_uvel_min             =  -2.7951176274667E+01
(PID.TID 0000.0001) %MON dynstat_uvel_mean            =   8.2261931869945E-01
(PID.TID 0000.0001) %MON dynstat_uvel_sd              =   8.6461235385805E+00
(PID.TID 0000.0001) %MON dynstat_uvel_del2            =   1.6603405449383E-03
(PID.TID 0000.0001) %MON dynstat_vvel_max             =   2.7942753339321E+01
(PID.TID 0000.0001) %MON dynstat_vvel_min             =  -2.7918429961946E+01
(PID.TID 0000.0001) %MON dynstat_vvel_mean            =   8.3057200078263E-01
(PID.TID 0000.0001) %MON dynstat_vvel_sd              =   8.6455656521568E+00
(PID.TID 0000.0001) %MON dynstat_vvel_del2            =   1.6611901926247E-03
(PID.TID 0000.0001) %MON dynstat_wvel_max             =   2.6671769901807E-01
(PID.TID 0000.0001) %MON dynstat_wvel_min             =  -2.8045469077953E-01
(PID.TID 0000.0001) %MON dynstat_wvel_mean            =  -1.7611523421038E-17
(PID.TID 0000.0001) %MON dynstat_wvel_sd              =   8.6353052933421E-02
(PID.TID 0000.0001) %MON dynstat_wvel_del2            =   8.4447083226225E-05
(PID.TID 0000.0001) %MON dynstat_theta_max            =   1.1565982463736E+03
(PID.TID 0000.0001) %MON dynstat_theta_min            =   2.5754595970556E+02
(PID.TID 0000.0001) %MON dynstat_theta_mean           =   3.2788749279274E+02
(PID.TID 0000.0001) %MON dynstat_theta_sd             =   9.0390060398076E+01
(PID.TID 0000.0001) %MON dynstat_theta_del2           =   6.4716657239078E-04
(PID.TID 0000.0001) %MON dynstat_salt_max             =   2.0321484415446E-02
(PID.TID 0000.0001) %MON dynstat_salt_min             =   0.0000000000000E+00
(PID.TID 0000.0001) %MON dynstat_salt_mean            =   1.8797941938095E-03
(PID.TID 0000.0001) %MON dynstat_salt_sd              =   3.8748890649481E-03
(PID.TID 0000.0001) %MON dynstat_salt_del2            =   8.1633696519443E-07
(PID.TID 0000.0001) %MON advcfl_uvel_max              =   8.4582908840923E-02
(PID.TID 0000.0001) %MON advcfl_vvel_max              =   8.4553521626274E-02
(PID.TID 0000.0001) %MON advcfl_wvel_max              =   1.0809816775228E-02
(PID.TID 0000.0001) %MON advcfl_W_hf_max              =   1.1794978391820E-02
(PID.TID 0000.0001) %MON am_eta_mean                  =  -1.5824379081990E+11
(PID.TID 0000.0001) %MON am_uZo_mean                  =   1.5799192360070E+11
(PID.TID 0000.0001) %MON am_tot_mean                  =  -2.5186721920126E+08
(PID.TID 0000.0001) %MON pe_b_mean                    =   1.5343249187180E+01
(PID.TID 0000.0001) %MON ke_max                       =   3.9374745717205E+02
(PID.TID 0000.0001) %MON ke_mean                      =   7.5433905041129E+01
(PID.TID 0000.0001) %MON ke_vol                       =   5.0986421042785E+19
(PID.TID 0000.0001) %MON vort_r_min                   =  -8.9132007948707E-06
(PID.TID 0000.0001) %MON vort_r_max                   =   8.9093610414855E-06
(PID.TID 0000.0001) %MON vort_a_mean                  =   1.9610841390281E-19
(PID.TID 0000.0001) %MON vort_a_sd                    =   8.4911679785495E-05
(PID.TID 0000.0001) %MON vort_p_mean                  =   2.0101091488245E-19
(PID.TID 0000.0001) %MON vort_p_sd                    =   8.4237117472164E-05
(PID.TID 0000.0001) %MON surfExpan_theta_mean         =  -4.6566383591814E+00
(PID.TID 0000.0001) %MON surfExpan_salt_mean          =  -4.5448801928211E-04
(PID.TID 0000.0001) %MON surfExpan_Heat_mean          =  -4.1337036347241E+02
(PID.TID 0000.0001) %MON En_Budget_T2PE_mean          =   5.7302193676051E+01
(PID.TID 0000.0001) // =======================================================
(PID.TID 0000.0001) // End MONITOR dynamic field statistics
(PID.TID 0000.0001) // =======================================================
 cg2d: Sum(rhs),rhsMax =  -5.58793544769287E-09  2.68836727459590E+04
(PID.TID 0000.0001)      cg2d_init_res =   6.56077763065142E+04
(PID.TID 0000.0001)      cg2d_iters(min,last) =      -1      14
(PID.TID 0000.0001)      cg2d_last_res =   9.63908036731439E-12
(PID.TID 0000.0001) // =======================================================
(PID.TID 0000.0001) // Begin MONITOR dynamic field statistics
(PID.TID 0000.0001) // =======================================================
(PID.TID 0000.0001) %MON time_tsnumber                =                    26
(PID.TID 0000.0001) %MON time_secondsf                =   9.3600000000000E+03
(PID.TID 0000.0001) %MON dynstat_eta_max              =   3.3707791545486E+03
(PID.TID 0000.0001) %MON dynstat_eta_min              =  -2.5377297241951E+03
(PID.TID 0000.0001) %MON dynstat_eta_mean             =  -8.5690789377047E-13
(PID.TID 0000.0001) %MON dynstat_eta_sd               =   2.0272980331728E+03
(PID.TID 0000.0001) %MON dynstat_eta_del2             =   6.7345013032438E-01
(PID.TID 0000.0001) %MON dynstat_uvel_max             =   2.8802734423825E+01
(PID.TID 0000.0001) %MON dynstat_uvel_min             =  -2.8800937988474E+01
(PID.TID 0000.0001) %MON dynstat_uvel_mean            =   8.7648482338667E-01
(PID.TID 0000.0001) %MON dynstat_uvel_sd              =   8.8662372020705E+00
(PID.TID 0000.0001) %MON dynstat_uvel_del2            =   1.6947189374864E-03
(PID.TID 0000.0001) %MON dynstat_vvel_max             =   2.8792370705710E+01
(PID.TID 0000.0001) %MON dynstat_vvel_min             =  -2.8765696547241E+01
(PID.TID 0000.0001) %MON dynstat_vvel_mean            =   8.8502097028208E-01
(PID.TID 0000.0001) %MON dynstat_vvel_sd              =   8.8655818235865E+00
(PID.TID 0000.0001) %MON dynstat_vvel_del2            =   1.6955791450241E-03
(PID.TID 0000.0001) %MON dynstat_wvel_max             =   2.7419613042724E-01
(PID.TID 0000.0001) %MON dynstat_wvel_min             =  -2.8217560252588E-01
(PID.TID 0000.0001) %MON dynstat_wvel_mean            =   2.0630641721788E-16
(PID.TID 0000.0001) %MON dynstat_wvel_sd              =   8.8760401036284E-02
(PID.TID 0000.0001) %MON dynstat_wvel_del2            =   8.6126312895227E-05
(PID.TID 0000.0001) %MON dynstat_theta_max            =   1.1567786333859E+03
(PID.TID 0000.0001) %MON dynstat_theta_min            =   2.5762223176205E+02
(PID.TID 0000.0001) %MON dynstat_theta_mean           =   3.2788584409699E+02
(PID.TID 0000.0001) %MON dynstat_theta_sd             =   9.0392649450122E+01
(PID.TID 0000.0001) %MON dynstat_theta_del2           =   6.5425809426647E-04
(PID.TID 0000.0001) %MON dynstat_salt_max             =   2.0321752323416E-02
(PID.TID 0000.0001) %MON dynstat_salt_min             =   0.0000000000000E+00
(PID.TID 0000.0001) %MON dynstat_salt_mean            =   1.8832861354150E-03
(PID.TID 0000.0001) %MON dynstat_salt_sd              =   3.8795979216536E-03
(PID.TID 0000.0001) %MON dynstat_salt_del2            =   8.2206309932346E-07
(PID.TID 0000.0001) %MON advcfl_uvel_max              =   8.7085665670957E-02
(PID.TID 0000.0001) %MON advcfl_vvel_max              =   8.7056390994322E-02
(PID.TID 0000.0001) %MON advcfl_wvel_max              =   1.0894420621182E-02
(PID.TID 0000.0001) %MON advcfl_W_hf_max              =   1.2013942142996E-02
(PID.TID 0000.0001) %MON am_eta_mean                  =  -1.6915537809108E+11
(PID.TID 0000.0001) %MON am_uZo_mean                  =   1.6887634215066E+11
(PID.TID 0000.0001) %MON am_tot_mean                  =  -2.7903594042307E+08
(PID.TID 0000.0001) %MON pe_b_mean                    =   1.7406715585072E+01
(PID.TID 0000.0001) %MON ke_max                       =   4.1679477442384E+02
(PID.TID 0000.0001) %MON ke_mean                      =   7.9380095478822E+01
(PID.TID 0000.0001) %MON ke_vol                       =   5.0986421042785E+19
(PID.TID 0000.0001) %MON vort_r_min                   =  -9.4565183194607E-06
(PID.TID 0000.0001) %MON vort_r_max                   =   9.4521358372175E-06
(PID.TID 0000.0001) %MON vort_a_mean                  =  -1.4462995525332E-19
(PID.TID 0000.0001) %MON vort_a_sd                    =   8.4960633097292E-05
(PID.TID 0000.0001) %MON vort_p_mean                  =  -1.4953249923413E-19
(PID.TID 0000.0001) %MON vort_p_sd                    =   8.4238712407369E-05
(PID.TID 0000.0001) %MON surfExpan_theta_mean         =  -4.6840048049712E+00
(PID.TID 0000.0001) %MON surfExpan_salt_mean          =  -4.5929499753979E-04
(PID.TID 0000.0001) %MON surfExpan_Heat_mean          =  -4.1615300201427E+02
(PID.TID 0000.0001) %MON En_Budget_T2PE_mean          =   5.8630284746961E+01
(PID.TID 0000.0001) // =======================================================
(PID.TID 0000.0001) // End MONITOR dynamic field statistics
(PID.TID 0000.0001) // =======================================================
 cg2d: Sum(rhs),rhsMax =   2.23517417907715E-08  2.85212789997001E+04
(PID.TID 0000.0001)      cg2d_init_res =   6.60170501976836E+04
(PID.TID 0000.0001)      cg2d_iters(min,last) =      -1      14
(PID.TID 0000.0001)      cg2d_last_res =   1.02479348790460E-11
(PID.TID 0000.0001) // =======================================================
(PID.TID 0000.0001) // Begin MONITOR dynamic field statistics
(PID.TID 0000.0001) // =======================================================
(PID.TID 0000.0001) %MON time_tsnumber                =                    27
(PID.TID 0000.0001) %MON time_secondsf                =   9.7200000000000E+03
(PID.TID 0000.0001) %MON dynstat_eta_max              =   3.5768437095111E+03
(PID.TID 0000.0001) %MON dynstat_eta_min              =  -2.6930008390849E+03
(PID.TID 0000.0001) %MON dynstat_eta_mean             =   1.8851973662950E-12
(PID.TID 0000.0001) %MON dynstat_eta_sd               =   2.1520242371511E+03
(PID.TID 0000.0001) %MON dynstat_eta_del2             =   6.9159466685720E-01
(PID.TID 0000.0001) %MON dynstat_uvel_max             =   2.9615162413083E+01
(PID.TID 0000.0001) %MON dynstat_uvel_min             =  -2.9613568616852E+01
(PID.TID 0000.0001) %MON dynstat_uvel_mean            =   9.3062635879818E-01
(PID.TID 0000.0001) %MON dynstat_uvel_sd              =   9.0752872105318E+00
(PID.TID 0000.0001) %MON dynstat_uvel_del2            =   1.7266951297523E-03
(PID.TID 0000.0001) %MON dynstat_vvel_max             =   2.9604837623901E+01
(PID.TID 0000.0001) %MON dynstat_vvel_min             =  -2.9575861781594E+01
(PID.TID 0000.0001) %MON dynstat_vvel_mean            =   9.3975799269273E-01
(PID.TID 0000.0001) %MON dynstat_vvel_sd              =   9.0745250132425E+00
(PID.TID 0000.0001) %MON dynstat_vvel_del2            =   1.7275422634944E-03
(PID.TID 0000.0001) %MON dynstat_wvel_max             =   2.8103704615569E-01
(PID.TID 0000.0001) %MON dynstat_wvel_min             =  -2.8299594000644E-01
(PID.TID 0000.0001) %MON dynstat_wvel_mean            =  -1.1573286819539E-16
(PID.TID 0000.0001) %MON dynstat_wvel_sd              =   9.1065711762730E-02
(PID.TID 0000.0001) %MON dynstat_wvel_del2            =   8.7657345197353E-05
(PID.TID 0000.0001) %MON dynstat_theta_max            =   1.1569368840527E+03
(PID.TID 0000.0001) %MON dynstat_theta_min            =   2.5769634163329E+02
(PID.TID 0000.0001) %MON dynstat_theta_mean           =   3.2788401090318E+02
(PID.TID 0000.0001) %MON dynstat_theta_sd             =   9.0395363841428E+01
(PID.TID 0000.0001) %MON dynstat_theta_del2           =   6.6342620579417E-04
(PID.TID 0000.0001) %MON dynstat_salt_max             =   2.0322022298476E-02
(PID.TID 0000.0001) %MON dynstat_salt_min             =   0.0000000000000E+00
(PID.TID 0000.0001) %MON dynstat_salt_mean            =   1.8868788637715E-03
(PID.TID 0000.0001) %MON dynstat_salt_sd              =   3.8846415339984E-03
(PID.TID 0000.0001) %MON dynstat_salt_del2            =   8.2742637366528E-07
(PID.TID 0000.0001) %MON advcfl_uvel_max              =   8.9467396844397E-02
(PID.TID 0000.0001) %MON advcfl_vvel_max              =   8.9438287608907E-02
(PID.TID 0000.0001) %MON advcfl_wvel_max              =   1.0968009820495E-02
(PID.TID 0000.0001) %MON advcfl_W_hf_max              =   1.2204296237078E-02
(PID.TID 0000.0001) %MON am_eta_mean                  =  -1.8016633593476E+11
(PID.TID 0000.0001) %MON am_uZo_mean                  =   1.7985911135330E+11
(PID.TID 0000.0001) %MON am_tot_mean                  =  -3.0722458146072E+08
(PID.TID 0000.0001) %MON pe_b_mean                    =   1.9614441732235E+01
(PID.TID 0000.0001) %MON ke_max                       =   4.3959808420121E+02
(PID.TID 0000.0001) %MON ke_mean                      =   8.3228526337092E+01
(PID.TID 0000.0001) %MON ke_vol                       =   5.0986421042785E+19
(PID.TID 0000.0001) %MON vort_r_min                   =  -9.9998118124925E-06
(PID.TID 0000.0001) %MON vort_r_max                   =   9.9948878735545E-06
(PID.TID 0000.0001) %MON vort_a_mean                  =  -1.1276233799412E-19
(PID.TID 0000.0001) %MON vort_a_sd                    =   8.5010170456402E-05
(PID.TID 0000.0001) %MON vort_p_mean                  =  -1.1031085213401E-19
(PID.TID 0000.0001) %MON vort_p_sd                    =   8.4240355223079E-05
(PID.TID 0000.0001) %MON surfExpan_theta_mean         =  -4.6970905319395E+00
(PID.TID 0000.0001) %MON surfExpan_salt_mean          =  -4.6282835295732E-04
(PID.TID 0000.0001) %MON surfExpan_Heat_mean          =  -4.1767461975386E+02
(PID.TID 0000.0001) %MON En_Budget_T2PE_mean          =   5.9867700387530E+01
(PID.TID 0000.0001) // =======================================================
(PID.TID 0000.0001) // End MONITOR dynamic field statistics
(PID.TID 0000.0001) // =======================================================
 cg2d: Sum(rhs),rhsMax =   4.09781932830811E-08  3.01723768186462E+04
(PID.TID 0000.0001)      cg2d_init_res =   6.62321586018620E+04
(PID.TID 0000.0001)      cg2d_iters(min,last) =      -1      14
(PID.TID 0000.0001)      cg2d_last_res =   1.08864074479379E-11
(PID.TID 0000.0001) // =======================================================
(PID.TID 0000.0001) // Begin MONITOR dynamic field statistics
(PID.TID 0000.0001) // =======================================================
(PID.TID 0000.0001) %MON time_tsnumber                =                    28
(PID.TID 0000.0001) %MON time_secondsf                =   1.0080000000000E+04
(PID.TID 0000.0001) %MON dynstat_eta_max              =   3.7834164163885E+03
(PID.TID 0000.0001) %MON dynstat_eta_min              =  -2.8488572343293E+03
(PID.TID 0000.0001) %MON dynstat_eta_mean             =  -1.0282894725246E-12
(PID.TID 0000.0001) %MON dynstat_eta_sd               =   2.2771582484863E+03
(PID.TID 0000.0001) %MON dynstat_eta_del2             =   7.0917638540304E-01
(PID.TID 0000.0001) %MON dynstat_uvel_max             =   3.0388991606609E+01
(PID.TID 0000.0001) %MON dynstat_uvel_min             =  -3.0387630417131E+01
(PID.TID 0000.0001) %MON dynstat_uvel_mean            =   9.8488358638118E-01
(PID.TID 0000.0001) %MON dynstat_uvel_sd              =   9.2734230188769E+00
(PID.TID 0000.0001) %MON dynstat_uvel_del2            =   1.7563821726414E-03
(PID.TID 0000.0001) %MON dynstat_vvel_max             =   3.0378716268625E+01
(PID.TID 0000.0001) %MON dynstat_vvel_min             =  -3.0347497922942E+01
(PID.TID 0000.0001) %MON dynstat_vvel_mean            =   9.9462209790274E-01
(PID.TID 0000.0001) %MON dynstat_vvel_sd              =   9.2725455418799E+00
(PID.TID 0000.0001) %MON dynstat_vvel_del2            =   1.7572112392420E-03
(PID.TID 0000.0001) %MON dynstat_wvel_max             =   2.8723875182110E-01
(PID.TID 0000.0001) %MON dynstat_wvel_min             =  -2.8295809554088E-01
(PID.TID 0000.0001) %MON dynstat_wvel_mean            =   2.0630641721788E-16
(PID.TID 0000.0001) %MON dynstat_wvel_sd              =   9.3267854106139E-02
(PID.TID 0000.0001) %MON dynstat_wvel_del2            =   8.9045748447138E-05
(PID.TID 0000.0001) %MON dynstat_theta_max            =   1.1570682597483E+03
(PID.TID 0000.0001) %MON dynstat_theta_min            =   2.5776832262483E+02
(PID.TID 0000.0001) %MON dynstat_theta_mean           =   3.2788199760345E+02
(PID.TID 0000.0001) %MON dynstat_theta_sd             =   9.0398195563854E+01
(PID.TID 0000.0001) %MON dynstat_theta_del2           =   6.7363176405243E-04
(PID.TID 0000.0001) %MON dynstat_salt_max             =   2.0322294539740E-02
(PID.TID 0000.0001) %MON dynstat_salt_min             =   0.0000000000000E+00
(PID.TID 0000.0001) %MON dynstat_salt_mean            =   1.8905870384830E-03
(PID.TID 0000.0001) %MON dynstat_salt_sd              =   3.8900509703905E-03
(PID.TID 0000.0001) %MON dynstat_salt_del2            =   8.3210077803140E-07
(PID.TID 0000.0001) %MON advcfl_uvel_max              =   9.1723937205611E-02
(PID.TID 0000.0001) %MON advcfl_vvel_max              =   9.1695000741812E-02
(PID.TID 0000.0001) %MON advcfl_wvel_max              =   1.1071300926723E-02
(PID.TID 0000.0001) %MON advcfl_W_hf_max              =   1.2355221796732E-02
(PID.TID 0000.0001) %MON am_eta_mean                  =  -1.9124371541395E+11
(PID.TID 0000.0001) %MON am_uZo_mean                  =   1.9090743350805E+11
(PID.TID 0000.0001) %MON am_tot_mean                  =  -3.3628190589816E+08
(PID.TID 0000.0001) %MON pe_b_mean                    =   2.1961806467183E+01
(PID.TID 0000.0001) %MON ke_max                       =   4.6207803109144E+02
(PID.TID 0000.0001) %MON ke_mean                      =   8.6967872054828E+01
(PID.TID 0000.0001) %MON ke_vol                       =   5.0986421042785E+19
(PID.TID 0000.0001) %MON vort_r_min                   =  -1.0541186369510E-05
(PID.TID 0000.0001) %MON vort_r_max                   =   1.0535727868794E-05
(PID.TID 0000.0001) %MON vort_a_mean                  =   8.5797431082480E-20
(PID.TID 0000.0001) %MON vort_a_sd                    =   8.5060154239341E-05
(PID.TID 0000.0001) %MON vort_p_mean                  =   8.8248675231763E-20
(PID.TID 0000.0001) %MON vort_p_sd                    =   8.4242050428077E-05
(PID.TID 0000.0001) %MON surfExpan_theta_mean         =  -4.6959806125557E+00
(PID.TID 0000.0001) %MON surfExpan_salt_mean          =  -4.6508142242826E-04
(PID.TID 0000.0001) %MON surfExpan_Heat_mean          =  -4.1793872939316E+02
(PID.TID 0000.0001) %MON En_Budget_T2PE_mean          =   6.1013925417772E+01
(PID.TID 0000.0001) // =======================================================
(PID.TID 0000.0001) // End MONITOR dynamic field statistics
(PID.TID 0000.0001) // =======================================================
 cg2d: Sum(rhs),rhsMax =  -3.72529029846191E-09  3.18307699672235E+04
(PID.TID 0000.0001)      cg2d_init_res =   6.62529590692788E+04
(PID.TID 0000.0001)      cg2d_iters(min,last) =      -1      14
(PID.TID 0000.0001)      cg2d_last_res =   1.15515983159303E-11
(PID.TID 0000.0001) // =======================================================
(PID.TID 0000.0001) // Begin MONITOR dynamic field statistics
(PID.TID 0000.0001) // =======================================================
(PID.TID 0000.0001) %MON time_tsnumber                =                    29
(PID.TID 0000.0001) %MON time_secondsf                =   1.0440000000000E+04
(PID.TID 0000.0001) %MON dynstat_eta_max              =   3.9898286467450E+03
(PID.TID 0000.0001) %MON dynstat_eta_min              =  -3.0049394139575E+03
(PID.TID 0000.0001) %MON dynstat_eta_mean             =  -2.5707236813114E-13
(PID.TID 0000.0001) %MON dynstat_eta_sd               =   2.4023328129487E+03
(PID.TID 0000.0001) %MON dynstat_eta_del2             =   7.2616621205627E-01
(PID.TID 0000.0001) %MON dynstat_uvel_max             =   3.1122891113193E+01
(PID.TID 0000.0001) %MON dynstat_uvel_min             =  -3.1121779906232E+01
(PID.TID 0000.0001) %MON dynstat_uvel_mean            =   1.0390971929840E+00
(PID.TID 0000.0001) %MON dynstat_uvel_sd              =   9.4608323550101E+00
(PID.TID 0000.0001) %MON dynstat_uvel_del2            =   1.7839349110983E-03
(PID.TID 0000.0001) %MON dynstat_vvel_max             =   3.1112664581961E+01
(PID.TID 0000.0001) %MON dynstat_vvel_min             =  -3.1079269243710E+01
(PID.TID 0000.0001) %MON dynstat_vvel_mean            =   1.0494535546897E+00
(PID.TID 0000.0001) %MON dynstat_vvel_sd              =   9.4598324152107E+00
(PID.TID 0000.0001) %MON dynstat_vvel_del2            =   1.7847232563098E-03
(PID.TID 0000.0001) %MON dynstat_wvel_max             =   2.9280843392027E-01
(PID.TID 0000.0001) %MON dynstat_wvel_min             =  -2.8321405628724E-01
(PID.TID 0000.0001) %MON dynstat_wvel_mean            =   3.0191183007494E-16
(PID.TID 0000.0001) %MON dynstat_wvel_sd              =   9.5366289648603E-02
(PID.TID 0000.0001) %MON dynstat_wvel_del2            =   9.0297995867648E-05
(PID.TID 0000.0001) %MON dynstat_theta_max            =   1.1571742362362E+03
(PID.TID 0000.0001) %MON dynstat_theta_min            =   2.5783821008665E+02
(PID.TID 0000.0001) %MON dynstat_theta_mean           =   3.2787981055477E+02
(PID.TID 0000.0001) %MON dynstat_theta_sd             =   9.0401135555124E+01
(PID.TID 0000.0001) %MON dynstat_theta_del2           =   6.8369229826214E-04
(PID.TID 0000.0001) %MON dynstat_salt_max             =   2.0322569262887E-02
(PID.TID 0000.0001) %MON dynstat_salt_min             =   0.0000000000000E+00
(PID.TID 0000.0001) %MON dynstat_salt_mean            =   1.8944229201796E-03
(PID.TID 0000.0001) %MON dynstat_salt_sd              =   3.8958571260174E-03
(PID.TID 0000.0001) %MON dynstat_salt_del2            =   8.3660018751796E-07
(PID.TID 0000.0001) %MON advcfl_uvel_max              =   9.3887500776695E-02
(PID.TID 0000.0001) %MON advcfl_vvel_max              =   9.3857050080088E-02
(PID.TID 0000.0001) %MON advcfl_wvel_max              =   1.1285978181081E-02
(PID.TID 0000.0001) %MON advcfl_W_hf_max              =   1.2480279411942E-02
(PID.TID 0000.0001) %MON am_eta_mean                  =  -2.0235438688649E+11
(PID.TID 0000.0001) %MON am_uZo_mean                  =   2.0198835190347E+11
(PID.TID 0000.0001) %MON am_tot_mean                  =  -3.6603498301978E+08
(PID.TID 0000.0001) %MON pe_b_mean                    =   2.4442632703609E+01
(PID.TID 0000.0001) %MON ke_max                       =   4.8416000904439E+02
(PID.TID 0000.0001) %MON ke_mean                      =   9.0588426956695E+01
(PID.TID 0000.0001) %MON ke_vol                       =   5.0986421042785E+19
(PID.TID 0000.0001) %MON vort_r_min                   =  -1.1078745724691E-05
(PID.TID 0000.0001) %MON vort_r_max                   =   1.1072764454840E-05
(PID.TID 0000.0001) %MON vort_a_mean                  =   1.7649757251253E-19
(PID.TID 0000.0001) %MON vort_a_sd                    =   8.5110443823389E-05
(PID.TID 0000.0001) %MON vort_p_mean                  =   1.7404598535956E-19
(PID.TID 0000.0001) %MON vort_p_sd                    =   8.4243801730118E-05
(PID.TID 0000.0001) %MON surfExpan_theta_mean         =  -4.6808017207976E+00
(PID.TID 0000.0001) %MON surfExpan_salt_mean          =  -4.6605015276316E-04
(PID.TID 0000.0001) %MON surfExpan_Heat_mean          =  -4.1695253107114E+02
(PID.TID 0000.0001) %MON En_Budget_T2PE_mean          =   6.2068528905394E+01
(PID.TID 0000.0001) // =======================================================
(PID.TID 0000.0001) // End MONITOR dynamic field statistics
(PID.TID 0000.0001) // =======================================================
 cg2d: Sum(rhs),rhsMax =   3.72529029846191E-09  3.34895249809857E+04
(PID.TID 0000.0001)      cg2d_init_res =   6.60799334832331E+04
(PID.TID 0000.0001)      cg2d_iters(min,last) =      -1      14
(PID.TID 0000.0001)      cg2d_last_res =   1.22394376930370E-11
(PID.TID 0000.0001) // =======================================================
(PID.TID 0000.0001) // Begin MONITOR dynamic field statistics
(PID.TID 0000.0001) // =======================================================
(PID.TID 0000.0001) %MON time_tsnumber                =                    30
(PID.TID 0000.0001) %MON time_secondsf                =   1.0800000000000E+04
(PID.TID 0000.0001) %MON dynstat_eta_max              =   4.1954620417632E+03
(PID.TID 0000.0001) %MON dynstat_eta_min              =  -3.1608933670326E+03
(PID.TID 0000.0001) %MON dynstat_eta_mean             =   9.4259868314751E-13
(PID.TID 0000.0001) %MON dynstat_eta_sd               =   2.5271813490323E+03
(PID.TID 0000.0001) %MON dynstat_eta_del2             =   7.4253154487271E-01
(PID.TID 0000.0001) %MON dynstat_uvel_max             =   3.1815648253523E+01
(PID.TID 0000.0001) %MON dynstat_uvel_min             =  -3.1814794384745E+01
(PID.TID 0000.0001) %MON dynstat_uvel_mean            =   1.0931097054233E+00
(PID.TID 0000.0001) %MON dynstat_uvel_sd              =   9.6377556942557E+00
(PID.TID 0000.0001) %MON dynstat_uvel_del2            =   1.8095338265079E-03
(PID.TID 0000.0001) %MON dynstat_vvel_max             =   3.1805460022395E+01
(PID.TID 0000.0001) %MON dynstat_vvel_min             =  -3.1769951159578E+01
(PID.TID 0000.0001) %MON dynstat_vvel_mean            =   1.1040941470391E+00
(PID.TID 0000.0001) %MON dynstat_vvel_sd              =   9.6366264397172E+00
(PID.TID 0000.0001) %MON dynstat_vvel_del2            =   1.8102705451399E-03
(PID.TID 0000.0001) %MON dynstat_wvel_max             =   2.9776436520511E-01
(PID.TID 0000.0001) %MON dynstat_wvel_min             =  -2.8279572005074E-01
(PID.TID 0000.0001) %MON dynstat_wvel_mean            =   3.1449148966140E-16
(PID.TID 0000.0001) %MON dynstat_wvel_sd              =   9.7360489307724E-02
(PID.TID 0000.0001) %MON dynstat_wvel_del2            =   9.1423820956672E-05
(PID.TID 0000.0001) %MON dynstat_theta_max            =   1.1572721424871E+03
(PID.TID 0000.0001) %MON dynstat_theta_min            =   2.5790604383478E+02
(PID.TID 0000.0001) %MON dynstat_theta_mean           =   3.2787745423244E+02
(PID.TID 0000.0001) %MON dynstat_theta_sd             =   9.0404176141114E+01
(PID.TID 0000.0001) %MON dynstat_theta_del2           =   6.9253546751756E-04
(PID.TID 0000.0001) %MON dynstat_salt_max             =   2.0455125106568E-02
(PID.TID 0000.0001) %MON dynstat_salt_min             =   0.0000000000000E+00
(PID.TID 0000.0001) %MON dynstat_salt_mean            =   1.8983965888808E-03
(PID.TID 0000.0001) %MON dynstat_salt_sd              =   3.9020809822600E-03
(PID.TID 0000.0001) %MON dynstat_salt_del2            =   8.4036619112620E-07
(PID.TID 0000.0001) %MON advcfl_uvel_max              =   9.5998555591663E-02
(PID.TID 0000.0001) %MON advcfl_vvel_max              =   9.5968236571269E-02
(PID.TID 0000.0001) %MON advcfl_wvel_max              =   1.1476999087135E-02
(PID.TID 0000.0001) %MON advcfl_W_hf_max              =   1.2766449667065E-02
(PID.TID 0000.0001) %MON am_eta_mean                  =  -2.1346513760470E+11
(PID.TID 0000.0001) %MON am_uZo_mean                  =   2.1306884798730E+11
(PID.TID 0000.0001) %MON am_tot_mean                  =  -3.9628961740039E+08
(PID.TID 0000.0001) %MON pe_b_mean                    =   2.7049201597608E+01
(PID.TID 0000.0001) %MON ke_max                       =   5.0577505723919E+02
(PID.TID 0000.0001) %MON ke_mean                      =   9.4082408337199E+01
(PID.TID 0000.0001) %MON ke_vol                       =   5.0986421042785E+19
(PID.TID 0000.0001) %MON vort_r_min                   =  -1.1610606282176E-05
(PID.TID 0000.0001) %MON vort_r_max                   =   1.1604118378006E-05
(PID.TID 0000.0001) %MON vort_a_mean                  =   6.8637944865984E-20
(PID.TID 0000.0001) %MON vort_a_sd                    =   8.5160897962266E-05
(PID.TID 0000.0001) %MON vort_p_mean                  =   6.8637848141678E-20
(PID.TID 0000.0001) %MON vort_p_sd                    =   8.4245613946714E-05
(PID.TID 0000.0001) %MON surfExpan_theta_mean         =  -4.6517228959479E+00
(PID.TID 0000.0001) %MON surfExpan_salt_mean          =  -4.6573247220505E-04
(PID.TID 0000.0001) %MON surfExpan_Heat_mean          =  -4.1472698880026E+02
(PID.TID 0000.0001) %MON En_Budget_T2PE_mean          =   6.3031353508676E+01
(PID.TID 0000.0001) // =======================================================
(PID.TID 0000.0001) // End MONITOR dynamic field statistics
(PID.TID 0000.0001) // =======================================================
 cg2d: Sum(rhs),rhsMax =  -1.86264514923096E-08  3.51412241859174E+04
(PID.TID 0000.0001)      cg2d_init_res =   6.57141972103187E+04
(PID.TID 0000.0001)      cg2d_iters(min,last) =      -1      14
(PID.TID 0000.0001)      cg2d_last_res =   1.29460780056979E-11
(PID.TID 0000.0001) // =======================================================
(PID.TID 0000.0001) // Begin MONITOR dynamic field statistics
(PID.TID 0000.0001) // =======================================================
(PID.TID 0000.0001) %MON time_tsnumber                =                    31
(PID.TID 0000.0001) %MON time_secondsf                =   1.1160000000000E+04
(PID.TID 0000.0001) %MON dynstat_eta_max              =   4.3996918157646E+03
(PID.TID 0000.0001) %MON dynstat_eta_min              =  -3.3163655084110E+03
(PID.TID 0000.0001) %MON dynstat_eta_mean             =  -3.4276315750819E-13
(PID.TID 0000.0001) %MON dynstat_eta_sd               =   2.6513390467796E+03
(PID.TID 0000.0001) %MON dynstat_eta_del2             =   7.5824320715234E-01
(PID.TID 0000.0001) %MON dynstat_uvel_max             =   3.2466189950599E+01
(PID.TID 0000.0001) %MON dynstat_uvel_min             =  -3.2465592334151E+01
(PID.TID 0000.0001) %MON dynstat_uvel_mean            =   1.1467660668477E+00
(PID.TID 0000.0001) %MON dynstat_uvel_sd              =   9.8044656102961E+00
(PID.TID 0000.0001) %MON dynstat_uvel_del2            =   1.8333344477630E-03
(PID.TID 0000.0001) %MON dynstat_vvel_max             =   3.2456023096033E+01
(PID.TID 0000.0001) %MON dynstat_vvel_min             =  -3.2418464808457E+01
(PID.TID 0000.0001) %MON dynstat_vvel_mean            =   1.1583879671146E+00
(PID.TID 0000.0001) %MON dynstat_vvel_sd              =   9.8032011873424E+00
(PID.TID 0000.0001) %MON dynstat_vvel_del2            =   1.8340027487004E-03
(PID.TID 0000.0001) %MON dynstat_wvel_max             =   3.0213865889227E-01
(PID.TID 0000.0001) %MON dynstat_wvel_min             =  -2.8167490747307E-01
(PID.TID 0000.0001) %MON dynstat_wvel_mean            =  -1.6101964270664E-16
(PID.TID 0000.0001) %MON dynstat_wvel_sd              =   9.9250622428365E-02
(PID.TID 0000.0001) %MON dynstat_wvel_del2            =   9.2431418249727E-05
(PID.TID 0000.0001) %MON dynstat_theta_max            =   1.1573378762308E+03
(PID.TID 0000.0001) %MON dynstat_theta_min            =   2.5797186914894E+02
(PID.TID 0000.0001) %MON dynstat_theta_mean           =   3.2787493469093E+02
(PID.TID 0000.0001) %MON dynstat_theta_sd             =   9.0407309244224E+01
(PID.TID 0000.0001) %MON dynstat_theta_del2           =   6.9932853591829E-04
(PID.TID 0000.0001) %MON dynstat_salt_max             =   2.0710721462635E-02
(PID.TID 0000.0001) %MON dynstat_salt_min             =   0.0000000000000E+00
(PID.TID 0000.0001) %MON dynstat_salt_mean            =   1.9025160557425E-03
(PID.TID 0000.0001) %MON dynstat_salt_sd              =   3.9087401931642E-03
(PID.TID 0000.0001) %MON dynstat_salt_del2            =   8.4386344382620E-07
(PID.TID 0000.0001) %MON advcfl_uvel_max              =   9.7983271115574E-02
(PID.TID 0000.0001) %MON advcfl_vvel_max              =   9.7953026479348E-02
(PID.TID 0000.0001) %MON advcfl_wvel_max              =   1.1645601413406E-02
(PID.TID 0000.0001) %MON advcfl_W_hf_max              =   1.3142279459940E-02
(PID.TID 0000.0001) %MON am_eta_mean                  =  -2.2454276981566E+11
(PID.TID 0000.0001) %MON am_uZo_mean                  =   2.2411594203476E+11
(PID.TID 0000.0001) %MON am_tot_mean                  =  -4.2682778090002E+08
(PID.TID 0000.0001) %MON pe_b_mean                    =   2.9772285213615E+01
(PID.TID 0000.0001) %MON ke_max                       =   5.2686061573925E+02
(PID.TID 0000.0001) %MON ke_mean                      =   9.7443617258684E+01
(PID.TID 0000.0001) %MON ke_vol                       =   5.0986421042785E+19
(PID.TID 0000.0001) %MON vort_r_min                   =  -1.2134907724416E-05
(PID.TID 0000.0001) %MON vort_r_max                   =   1.2127932900683E-05
(PID.TID 0000.0001) %MON vort_a_mean                  =  -2.3042738633580E-19
(PID.TID 0000.0001) %MON vort_a_sd                    =   8.5211371791409E-05
(PID.TID 0000.0001) %MON vort_p_mean                  =  -2.3287839515850E-19
(PID.TID 0000.0001) %MON vort_p_sd                    =   8.4247489654131E-05
(PID.TID 0000.0001) %MON surfExpan_theta_mean         =  -4.6089528000782E+00
(PID.TID 0000.0001) %MON surfExpan_salt_mean          =  -4.6412879935621E-04
(PID.TID 0000.0001) %MON surfExpan_Heat_mean          =  -4.1127666770307E+02
(PID.TID 0000.0001) %MON En_Budget_T2PE_mean          =   6.3902278033717E+01
(PID.TID 0000.0001) // =======================================================
(PID.TID 0000.0001) // End MONITOR dynamic field statistics
(PID.TID 0000.0001) // =======================================================
 cg2d: Sum(rhs),rhsMax =  -2.60770320892334E-08  3.67782567924978E+04
(PID.TID 0000.0001)      cg2d_init_res =   6.51574885549568E+04
(PID.TID 0000.0001)      cg2d_iters(min,last) =      -1      14
(PID.TID 0000.0001)      cg2d_last_res =   1.36671053783605E-11
(PID.TID 0000.0001) // =======================================================
(PID.TID 0000.0001) // Begin MONITOR dynamic field statistics
(PID.TID 0000.0001) // =======================================================
(PID.TID 0000.0001) %MON time_tsnumber                =                    32
(PID.TID 0000.0001) %MON time_secondsf                =   1.1520000000000E+04
(PID.TID 0000.0001) %MON dynstat_eta_max              =   4.6018761521526E+03
(PID.TID 0000.0001) %MON dynstat_eta_min              =  -3.4709984539247E+03
(PID.TID 0000.0001) %MON dynstat_eta_mean             =  -3.4276315750819E-13
(PID.TID 0000.0001) %MON dynstat_eta_sd               =   2.7744439596147E+03
(PID.TID 0000.0001) %MON dynstat_eta_del2             =   7.7328314652308E-01
(PID.TID 0000.0001) %MON dynstat_uvel_max             =   3.3073590922421E+01
(PID.TID 0000.0001) %MON dynstat_uvel_min             =  -3.3073245140016E+01
(PID.TID 0000.0001) %MON dynstat_uvel_mean            =   1.1999137760773E+00
(PID.TID 0000.0001) %MON dynstat_uvel_sd              =   9.9612782263478E+00
(PID.TID 0000.0001) %MON dynstat_uvel_del2            =   1.8555029548777E-03
(PID.TID 0000.0001) %MON dynstat_vvel_max             =   3.3063426668085E+01
(PID.TID 0000.0001) %MON dynstat_vvel_min             =  -3.3023876068718E+01
(PID.TID 0000.0001) %MON dynstat_vvel_mean            =   1.2121814763515E+00
(PID.TID 0000.0001) %MON dynstat_vvel_sd              =   9.9598741673251E+00
(PID.TID 0000.0001) %MON dynstat_vvel_del2            =   1.8560815766426E-03
(PID.TID 0000.0001) %MON dynstat_wvel_max             =   3.0597658014208E-01
(PID.TID 0000.0001) %MON dynstat_wvel_min             =  -2.7988017671614E-01
(PID.TID 0000.0001) %MON dynstat_wvel_mean            =   2.8430030665390E-16
(PID.TID 0000.0001) %MON dynstat_wvel_sd              =   1.0103708399051E-01
(PID.TID 0000.0001) %MON dynstat_wvel_del2            =   9.3330835213719E-05
(PID.TID 0000.0001) %MON dynstat_theta_max            =   1.1573708747653E+03
(PID.TID 0000.0001) %MON dynstat_theta_min            =   2.5803573678967E+02
(PID.TID 0000.0001) %MON dynstat_theta_mean           =   3.2787225970227E+02
(PID.TID 0000.0001) %MON dynstat_theta_sd             =   9.0410525961764E+01
(PID.TID 0000.0001) %MON dynstat_theta_del2           =   7.0361474826079E-04
(PID.TID 0000.0001) %MON dynstat_salt_max             =   2.0955792356070E-02
(PID.TID 0000.0001) %MON dynstat_salt_min             =   0.0000000000000E+00
(PID.TID 0000.0001) %MON dynstat_salt_mean            =   1.9067870056961E-03
(PID.TID 0000.0001) %MON dynstat_salt_sd              =   3.9158496486397E-03
(PID.TID 0000.0001) %MON dynstat_salt_del2            =   8.4788269053732E-07
(PID.TID 0000.0001) %MON advcfl_uvel_max              =   9.9838732272035E-02
(PID.TID 0000.0001) %MON advcfl_vvel_max              =   9.9808497657051E-02
(PID.TID 0000.0001) %MON advcfl_wvel_max              =   1.1793529855584E-02
(PID.TID 0000.0001) %MON advcfl_W_hf_max              =   1.3504719747455E-02
(PID.TID 0000.0001) %MON am_eta_mean                  =  -2.3555419979692E+11
(PID.TID 0000.0001) %MON am_uZo_mean                  =   2.3509679396696E+11
(PID.TID 0000.0001) %MON am_tot_mean                  =  -4.5740582995929E+08
(PID.TID 0000.0001) %MON pe_b_mean                    =   3.2601197234967E+01
(PID.TID 0000.0001) %MON ke_max                       =   5.4736105920817E+02
(PID.TID 0000.0001) %MON ke_mean                      =   1.0066766716661E+02
(PID.TID 0000.0001) %MON ke_vol                       =   5.0986421042785E+19
(PID.TID 0000.0001) %MON vort_r_min                   =  -1.2649825188195E-05
(PID.TID 0000.0001) %MON vort_r_max                   =   1.2642384123792E-05
(PID.TID 0000.0001) %MON vort_a_mean                  =   6.1283879344629E-20
(PID.TID 0000.0001) %MON vort_a_sd                    =   8.5261719104780E-05
(PID.TID 0000.0001) %MON vort_p_mean                  =   6.1283783300176E-20
(PID.TID 0000.0001) %MON vort_p_sd                    =   8.4249430967727E-05
(PID.TID 0000.0001) %MON surfExpan_theta_mean         =  -4.5527379260809E+00
(PID.TID 0000.0001) %MON surfExpan_salt_mean          =  -4.6124243064705E-04
(PID.TID 0000.0001) %MON surfExpan_Heat_mean          =  -4.0661960075278E+02
(PID.TID 0000.0001) %MON En_Budget_T2PE_mean          =   6.4681361439951E+01
(PID.TID 0000.0001) // =======================================================
(PID.TID 0000.0001) // End MONITOR dynamic field statistics
(PID.TID 0000.0001) // =======================================================
(PID.TID 0000.0001)   Exporting atmospheric fluxes at iter.        32
(PID.TID 0000.0001)   Importing oceanic fields at iteration        32
 cg2d: Sum(rhs),rhsMax =   0.00000000000000E+00  3.83931019291551E+04
(PID.TID 0000.0001)      cg2d_init_res =   6.44121597533735E+04
(PID.TID 0000.0001)      cg2d_iters(min,last) =      -1      14
(PID.TID 0000.0001)      cg2d_last_res =   1.43969329196386E-11
(PID.TID 0000.0001) // =======================================================
(PID.TID 0000.0001) // Begin MONITOR dynamic field statistics
(PID.TID 0000.0001) // =======================================================
(PID.TID 0000.0001) %MON time_tsnumber                =                    33
(PID.TID 0000.0001) %MON time_secondsf                =   1.1880000000000E+04
(PID.TID 0000.0001) %MON dynstat_eta_max              =   4.8013473606259E+03
(PID.TID 0000.0001) %MON dynstat_eta_min              =  -3.6244283044545E+03
(PID.TID 0000.0001) %MON dynstat_eta_mean             =  -8.5690789377047E-13
(PID.TID 0000.0001) %MON dynstat_eta_sd               =   2.8961380823149E+03
(PID.TID 0000.0001) %MON dynstat_eta_del2             =   7.8765077721906E-01
(PID.TID 0000.0001) %MON dynstat_uvel_max             =   3.3637081784871E+01
(PID.TID 0000.0001) %MON dynstat_uvel_min             =  -3.3636982694501E+01
(PID.TID 0000.0001) %MON dynstat_uvel_mean            =   1.2524037193048E+00
(PID.TID 0000.0001) %MON dynstat_uvel_sd              =   1.0108548742912E+01
(PID.TID 0000.0001) %MON dynstat_uvel_del2            =   1.8761742315239E-03
(PID.TID 0000.0001) %MON dynstat_vvel_max             =   3.3626901875887E+01
(PID.TID 0000.0001) %MON dynstat_vvel_min             =  -3.3585412547670E+01
(PID.TID 0000.0001) %MON dynstat_vvel_mean            =   1.2653237696930E+00
(PID.TID 0000.0001) %MON dynstat_vvel_sd              =   1.0107000836079E+01
(PID.TID 0000.0001) %MON dynstat_vvel_del2            =   1.8766493385152E-03
(PID.TID 0000.0001) %MON dynstat_wvel_max             =   3.0933880945012E-01
(PID.TID 0000.0001) %MON dynstat_wvel_min             =  -2.7743414956757E-01
(PID.TID 0000.0001) %MON dynstat_wvel_mean            =  -1.2831252778185E-16
(PID.TID 0000.0001) %MON dynstat_wvel_sd              =   1.0272074677238E-01
(PID.TID 0000.0001) %MON dynstat_wvel_del2            =   9.4132857414518E-05
(PID.TID 0000.0001) %MON dynstat_theta_max            =   1.1573716683798E+03
(PID.TID 0000.0001) %MON dynstat_theta_min            =   2.5809750789240E+02
(PID.TID 0000.0001) %MON dynstat_theta_mean           =   3.2786942687609E+02
(PID.TID 0000.0001) %MON dynstat_theta_sd             =   9.0413823541721E+01
(PID.TID 0000.0001) %MON dynstat_theta_del2           =   7.0525924392265E-04
(PID.TID 0000.0001) %MON dynstat_salt_max             =   2.1188761141471E-02
(PID.TID 0000.0001) %MON dynstat_salt_min             =   0.0000000000000E+00
(PID.TID 0000.0001) %MON dynstat_salt_mean            =   1.9112105809574E-03
(PID.TID 0000.0001) %MON dynstat_salt_sd              =   3.9234226105237E-03
(PID.TID 0000.0001) %MON dynstat_salt_del2            =   8.5127249820490E-07
(PID.TID 0000.0001) %MON advcfl_uvel_max              =   1.0156253437249E-01
(PID.TID 0000.0001) %MON advcfl_vvel_max              =   1.0153224724803E-01
(PID.TID 0000.0001) %MON advcfl_wvel_max              =   1.1923123276450E-02
(PID.TID 0000.0001) %MON advcfl_W_hf_max              =   1.3854267576477E-02
(PID.TID 0000.0001) %MON am_eta_mean                  =  -2.4646655688882E+11
(PID.TID 0000.0001) %MON am_uZo_mean                  =   2.4597880749951E+11
(PID.TID 0000.0001) %MON am_tot_mean                  =  -4.8774938931253E+08
(PID.TID 0000.0001) %MON pe_b_mean                    =   3.5523861150286E+01
(PID.TID 0000.0001) %MON ke_max                       =   5.6722803056449E+02
(PID.TID 0000.0001) %MON ke_mean                      =   1.0375189145327E+02
(PID.TID 0000.0001) %MON ke_vol                       =   5.0986421042785E+19
(PID.TID 0000.0001) %MON vort_r_min                   =  -1.3153566521284E-05
(PID.TID 0000.0001) %MON vort_r_max                   =   1.3145682657243E-05
(PID.TID 0000.0001) %MON vort_a_mean                  =  -1.1521369316790E-19
(PID.TID 0000.0001) %MON vort_a_sd                    =   8.5311792865053E-05
(PID.TID 0000.0001) %MON vort_p_mean                  =  -1.1276215202978E-19
(PID.TID 0000.0001) %MON vort_p_sd                    =   8.4251439562505E-05
(PID.TID 0000.0001) %MON surfExpan_theta_mean         =  -4.4833653395215E+00
(PID.TID 0000.0001) %MON surfExpan_salt_mean          =  -4.5708120717792E-04
(PID.TID 0000.0001) %MON surfExpan_Heat_mean          =  -4.0077759941537E+02
(PID.TID 0000.0001) %MON En_Budget_T2PE_mean          =   6.5368833910140E+01
(PID.TID 0000.0001) // =======================================================
(PID.TID 0000.0001) // End MONITOR dynamic field statistics
(PID.TID 0000.0001) // =======================================================
 cg2d: Sum(rhs),rhsMax =  -5.58793544769287E-08  3.99785644558896E+04
(PID.TID 0000.0001)      cg2d_init_res =   6.34811813104520E+04
(PID.TID 0000.0001)      cg2d_iters(min,last) =      -1      14
(PID.TID 0000.0001)      cg2d_last_res =   1.51287897417757E-11
(PID.TID 0000.0001) // =======================================================
(PID.TID 0000.0001) // Begin MONITOR dynamic field statistics
(PID.TID 0000.0001) // =======================================================
(PID.TID 0000.0001) %MON time_tsnumber                =                    34
(PID.TID 0000.0001) %MON time_secondsf                =   1.2240000000000E+04
(PID.TID 0000.0001) %MON dynstat_eta_max              =   4.9974659699676E+03
(PID.TID 0000.0001) %MON dynstat_eta_min              =  -3.7762838470324E+03
(PID.TID 0000.0001) %MON dynstat_eta_mean             =   1.1996710512787E-12
(PID.TID 0000.0001) %MON dynstat_eta_sd               =   3.0160684384142E+03
(PID.TID 0000.0001) %MON dynstat_eta_del2             =   8.0136297134463E-01
(PID.TID 0000.0001) %MON dynstat_uvel_max             =   3.4156050889935E+01
(PID.TID 0000.0001) %MON dynstat_uvel_min             =  -3.4156190197771E+01
(PID.TID 0000.0001) %MON dynstat_uvel_mean            =   1.3040901022404E+00
(PID.TID 0000.0001) %MON dynstat_uvel_sd              =   1.0246666199743E+01
(PID.TID 0000.0001) %MON dynstat_uvel_del2            =   1.8955127266943E-03
(PID.TID 0000.0001) %MON dynstat_vvel_max             =   3.4145838085167E+01
(PID.TID 0000.0001) %MON dynstat_vvel_min             =  -3.4102453197368E+01
(PID.TID 0000.0001) %MON dynstat_vvel_mean            =   1.3176675086462E+00
(PID.TID 0000.0001) %MON dynstat_vvel_sd              =   1.0244971231726E+01
(PID.TID 0000.0001) %MON dynstat_vvel_del2            =   1.8958667911113E-03
(PID.TID 0000.0001) %MON dynstat_wvel_max             =   3.1230046383348E-01
(PID.TID 0000.0001) %MON dynstat_wvel_min             =  -2.7435310235882E-01
(PID.TID 0000.0001) %MON dynstat_wvel_mean            =   2.2643387255621E-17
(PID.TID 0000.0001) %MON dynstat_wvel_sd              =   1.0430285994123E-01
(PID.TID 0000.0001) %MON dynstat_wvel_del2            =   9.4848470268070E-05
(PID.TID 0000.0001) %MON dynstat_theta_max            =   1.1573482318174E+03
(PID.TID 0000.0001) %MON dynstat_theta_min            =   2.5815738721337E+02
(PID.TID 0000.0001) %MON dynstat_theta_mean           =   3.2786644976150E+02
(PID.TID 0000.0001) %MON dynstat_theta_sd             =   9.0417190713512E+01
(PID.TID 0000.0001) %MON dynstat_theta_del2           =   7.0452149505139E-04
(PID.TID 0000.0001) %MON dynstat_salt_max             =   2.1408057481503E-02
(PID.TID 0000.0001) %MON dynstat_salt_min             =   0.0000000000000E+00
(PID.TID 0000.0001) %MON dynstat_salt_mean            =   1.9157989987831E-03
(PID.TID 0000.0001) %MON dynstat_salt_sd              =   3.9314693651304E-03
(PID.TID 0000.0001) %MON dynstat_salt_del2            =   8.5518903270336E-07
(PID.TID 0000.0001) %MON advcfl_uvel_max              =   1.0315280088152E-01
(PID.TID 0000.0001) %MON advcfl_vvel_max              =   1.0312240815153E-01
(PID.TID 0000.0001) %MON advcfl_wvel_max              =   1.2044252179135E-02
(PID.TID 0000.0001) %MON advcfl_W_hf_max              =   1.4162191574229E-02
(PID.TID 0000.0001) %MON am_eta_mean                  =  -2.5724728254107E+11
(PID.TID 0000.0001) %MON am_uZo_mean                  =   2.5672972050892E+11
(PID.TID 0000.0001) %MON am_tot_mean                  =  -5.1756203215027E+08
(PID.TID 0000.0001) %MON pe_b_mean                    =   3.8526895877976E+01
(PID.TID 0000.0001) %MON ke_max                       =   5.8642059350844E+02
(PID.TID 0000.0001) %MON ke_mean                      =   1.0669525120294E+02
(PID.TID 0000.0001) %MON ke_vol                       =   5.0986421042785E+19
(PID.TID 0000.0001) %MON vort_r_min                   =  -1.3644379241000E-05
(PID.TID 0000.0001) %MON vort_r_max                   =   1.3636079727726E-05
(PID.TID 0000.0001) %MON vort_a_mean                  =  -1.3237317938440E-19
(PID.TID 0000.0001) %MON vort_a_sd                    =   8.5361446862405E-05
(PID.TID 0000.0001) %MON vort_p_mean                  =  -1.3237294994684E-19
(PID.TID 0000.0001) %MON vort_p_sd                    =   8.4253517804397E-05
(PID.TID 0000.0001) %MON surfExpan_theta_mean         =  -4.4011534002727E+00
(PID.TID 0000.0001) %MON surfExpan_salt_mean          =  -4.5165136278401E-04
(PID.TID 0000.0001) %MON surfExpan_Heat_mean          =  -3.9377536529533E+02
(PID.TID 0000.0001) %MON En_Budget_T2PE_mean          =   6.5964984096242E+01
(PID.TID 0000.0001) // =======================================================
(PID.TID 0000.0001) // End MONITOR dynamic field statistics
(PID.TID 0000.0001) // =======================================================
 cg2d: Sum(rhs),rhsMax =   2.98023223876953E-08  4.15279208616370E+04
(PID.TID 0000.0001)      cg2d_init_res =   6.23681181624037E+04
(PID.TID 0000.0001)      cg2d_iters(min,last) =      -1      14
(PID.TID 0000.0001)      cg2d_last_res =   1.58544352689394E-11
(PID.TID 0000.0001) // =======================================================
(PID.TID 0000.0001) // Begin MONITOR dynamic field statistics
(PID.TID 0000.0001) // =======================================================
(PID.TID 0000.0001) %MON time_tsnumber                =                    35
(PID.TID 0000.0001) %MON time_secondsf                =   1.2600000000000E+04
(PID.TID 0000.0001) %MON dynstat_eta_max              =   5.1897945780469E+03
(PID.TID 0000.0001) %MON dynstat_eta_min              =  -3.9261877063396E+03
(PID.TID 0000.0001) %MON dynstat_eta_mean             =  -1.7138157875409E-13
(PID.TID 0000.0001) %MON dynstat_eta_sd               =   3.1338880995188E+03
(PID.TID 0000.0001) %MON dynstat_eta_del2             =   8.1445362451856E-01
(PID.TID 0000.0001) %MON dynstat_uvel_max             =   3.4630033893673E+01
(PID.TID 0000.0001) %MON dynstat_uvel_min             =  -3.4630404737164E+01
(PID.TID 0000.0001) %MON dynstat_uvel_mean            =   1.3548308722574E+00
(PID.TID 0000.0001) %MON dynstat_uvel_sd              =   1.0376047659938E+01
(PID.TID 0000.0001) %MON dynstat_uvel_del2            =   1.9136419527561E-03
(PID.TID 0000.0001) %MON dynstat_vvel_max             =   3.4619774440445E+01
(PID.TID 0000.0001) %MON dynstat_vvel_min             =  -3.4574542945370E+01
(PID.TID 0000.0001) %MON dynstat_vvel_mean            =   1.3690692278581E+00
(PID.TID 0000.0001) %MON dynstat_vvel_sd              =   1.0374202683023E+01
(PID.TID 0000.0001) %MON dynstat_vvel_del2            =   1.9138540092558E-03
(PID.TID 0000.0001) %MON dynstat_wvel_max             =   3.1494448176730E-01
(PID.TID 0000.0001) %MON dynstat_wvel_min             =  -2.7065491029310E-01
(PID.TID 0000.0001) %MON dynstat_wvel_mean            =   6.0382366014988E-17
(PID.TID 0000.0001) %MON dynstat_wvel_sd              =   1.0578523310574E-01
(PID.TID 0000.0001) %MON dynstat_wvel_del2            =   9.5487985414773E-05
(PID.TID 0000.0001) %MON dynstat_theta_max            =   1.1573334253528E+03
(PID.TID 0000.0001) %MON dynstat_theta_min            =   2.5821547501835E+02
(PID.TID 0000.0001) %MON dynstat_theta_mean           =   3.2786333849900E+02
(PID.TID 0000.0001) %MON dynstat_theta_sd             =   9.0420618048363E+01
(PID.TID 0000.0001) %MON dynstat_theta_del2           =   7.0194956996522E-04
(PID.TID 0000.0001) %MON dynstat_salt_max             =   2.1618636698815E-02
(PID.TID 0000.0001) %MON dynstat_salt_min             =   0.0000000000000E+00
(PID.TID 0000.0001) %MON dynstat_salt_mean            =   1.9205548367675E-03
(PID.TID 0000.0001) %MON dynstat_salt_sd              =   3.9399854561700E-03
(PID.TID 0000.0001) %MON dynstat_salt_del2            =   8.5867763666778E-07
(PID.TID 0000.0001) %MON advcfl_uvel_max              =   1.0460815974458E-01
(PID.TID 0000.0001) %MON advcfl_vvel_max              =   1.0457762811985E-01
(PID.TID 0000.0001) %MON advcfl_wvel_max              =   1.2186471824384E-02
(PID.TID 0000.0001) %MON advcfl_W_hf_max              =   1.4446969010590E-02
(PID.TID 0000.0001) %MON am_eta_mean                  =  -2.6786423195282E+11
(PID.TID 0000.0001) %MON am_uZo_mean                  =   2.6731771578674E+11
(PID.TID 0000.0001) %MON am_tot_mean                  =  -5.4651616608661E+08
(PID.TID 0000.0001) %MON pe_b_mean                    =   4.1595716126266E+01
(PID.TID 0000.0001) %MON ke_max                       =   6.0490509707682E+02
(PID.TID 0000.0001) %MON ke_mean                      =   1.0949818179640E+02
(PID.TID 0000.0001) %MON ke_vol                       =   5.0986421042784E+19
(PID.TID 0000.0001) %MON vort_r_min                   =  -1.4120553407755E-05
(PID.TID 0000.0001) %MON vort_r_max                   =   1.4111870533060E-05
(PID.TID 0000.0001) %MON vort_a_mean                  =  -1.9855976907660E-19
(PID.TID 0000.0001) %MON vort_a_sd                    =   8.5410533995708E-05
(PID.TID 0000.0001) %MON vort_p_mean                  =  -2.0346210921147E-19
(PID.TID 0000.0001) %MON vort_p_sd                    =   8.4255666560935E-05
(PID.TID 0000.0001) %MON surfExpan_theta_mean         =  -4.3064542513622E+00
(PID.TID 0000.0001) %MON surfExpan_salt_mean          =  -4.4496450202385E-04
(PID.TID 0000.0001) %MON surfExpan_Heat_mean          =  -3.8564087161076E+02
(PID.TID 0000.0001) %MON En_Budget_T2PE_mean          =   6.6470195088962E+01
(PID.TID 0000.0001) // =======================================================
(PID.TID 0000.0001) // End MONITOR dynamic field statistics
(PID.TID 0000.0001) // =======================================================
 cg2d: Sum(rhs),rhsMax =  -1.49011611938477E-08  4.30349755067821E+04
(PID.TID 0000.0001)      cg2d_init_res =   6.10771401504434E+04
(PID.TID 0000.0001)      cg2d_iters(min,last) =      -1      14
(PID.TID 0000.0001)      cg2d_last_res =   1.65639094416201E-11
(PID.TID 0000.0001) // =======================================================
(PID.TID 0000.0001) // Begin MONITOR dynamic field statistics
(PID.TID 0000.0001) // =======================================================
(PID.TID 0000.0001) %MON time_tsnumber                =                    36
(PID.TID 0000.0001) %MON time_secondsf                =   1.2960000000000E+04
(PID.TID 0000.0001) %MON dynstat_eta_max              =   5.3772865306098E+03
(PID.TID 0000.0001) %MON dynstat_eta_min              =  -4.0737591866841E+03
(PID.TID 0000.0001) %MON dynstat_eta_mean             =   0.0000000000000E+00
(PID.TID 0000.0001) %MON dynstat_eta_sd               =   3.2492571902388E+03
(PID.TID 0000.0001) %MON dynstat_eta_del2             =   8.2696918606864E-01
(PID.TID 0000.0001) %MON dynstat_uvel_max             =   3.5058704428280E+01
(PID.TID 0000.0001) %MON dynstat_uvel_min             =  -3.5059305462081E+01
(PID.TID 0000.0001) %MON dynstat_uvel_mean            =   1.4044880086912E+00
(PID.TID 0000.0001) %MON dynstat_uvel_sd              =   1.0497150762665E+01
(PID.TID 0000.0001) %MON dynstat_uvel_del2            =   1.9306715397219E-03
(PID.TID 0000.0001) %MON dynstat_vvel_max             =   3.5048390215303E+01
(PID.TID 0000.0001) %MON dynstat_vvel_min             =  -3.5001365502029E+01
(PID.TID 0000.0001) %MON dynstat_vvel_mean            =   1.4193894043468E+00
(PID.TID 0000.0001) %MON dynstat_vvel_sd              =   1.0495152682192E+01
(PID.TID 0000.0001) %MON dynstat_vvel_del2            =   1.9307481731443E-03
(PID.TID 0000.0001) %MON dynstat_wvel_max             =   3.1735919393427E-01
(PID.TID 0000.0001) %MON dynstat_wvel_min             =  -2.6634891265852E-01
(PID.TID 0000.0001) %MON dynstat_wvel_mean            =  -2.7926844281932E-16
(PID.TID 0000.0001) %MON dynstat_wvel_sd              =   1.0716995202219E-01
(PID.TID 0000.0001) %MON dynstat_wvel_del2            =   9.6064503925920E-05
(PID.TID 0000.0001) %MON dynstat_theta_max            =   1.1572906769646E+03
(PID.TID 0000.0001) %MON dynstat_theta_min            =   2.5827178478786E+02
(PID.TID 0000.0001) %MON dynstat_theta_mean           =   3.2786010154764E+02
(PID.TID 0000.0001) %MON dynstat_theta_sd             =   9.0424097678943E+01
(PID.TID 0000.0001) %MON dynstat_theta_del2           =   6.9825201436015E-04
(PID.TID 0000.0001) %MON dynstat_salt_max             =   2.1811761975569E-02
(PID.TID 0000.0001) %MON dynstat_salt_min             =   0.0000000000000E+00
(PID.TID 0000.0001) %MON dynstat_salt_mean            =   1.9254797080653E-03
(PID.TID 0000.0001) %MON dynstat_salt_sd              =   3.9489615658476E-03
(PID.TID 0000.0001) %MON dynstat_salt_del2            =   8.6074884527814E-07
(PID.TID 0000.0001) %MON advcfl_uvel_max              =   1.0592772664334E-01
(PID.TID 0000.0001) %MON advcfl_vvel_max              =   1.0589701674298E-01
(PID.TID 0000.0001) %MON advcfl_wvel_max              =   1.2439160406482E-02
(PID.TID 0000.0001) %MON advcfl_W_hf_max              =   1.4720326815762E-02
(PID.TID 0000.0001) %MON am_eta_mean                  =  -2.7828577022666E+11
(PID.TID 0000.0001) %MON am_uZo_mean                  =   2.7771151137939E+11
(PID.TID 0000.0001) %MON am_tot_mean                  =  -5.7425884726941E+08
(PID.TID 0000.0001) %MON pe_b_mean                    =   4.4714647612443E+01
(PID.TID 0000.0001) %MON ke_max                       =   6.2265493953706E+02
(PID.TID 0000.0001) %MON ke_mean                      =   1.1216282840218E+02
(PID.TID 0000.0001) %MON ke_vol                       =   5.0986421042784E+19
(PID.TID 0000.0001) %MON vort_r_min                   =  -1.4580425661493E-05
(PID.TID 0000.0001) %MON vort_r_max                   =   1.4571403066293E-05
(PID.TID 0000.0001) %MON vort_a_mean                  =  -2.8190584498529E-19
(PID.TID 0000.0001) %MON vort_a_sd                    =   8.5458909401898E-05
(PID.TID 0000.0001) %MON vort_p_mean                  =  -2.8190530707638E-19
(PID.TID 0000.0001) %MON vort_p_sd                    =   8.4257887722217E-05
(PID.TID 0000.0001) %MON surfExpan_theta_mean         =  -4.1996531196584E+00
(PID.TID 0000.0001) %MON surfExpan_salt_mean          =  -4.3703408928819E-04
(PID.TID 0000.0001) %MON surfExpan_Heat_mean          =  -3.7640527408559E+02
(PID.TID 0000.0001) %MON En_Budget_T2PE_mean          =   6.6885085911189E+01
(PID.TID 0000.0001) // =======================================================
(PID.TID 0000.0001) // End MONITOR dynamic field statistics
(PID.TID 0000.0001) // =======================================================
 cg2d: Sum(rhs),rhsMax =   3.72529029846191E-09  4.44940297308240E+04
(PID.TID 0000.0001)      cg2d_init_res =   5.96130357016638E+04
(PID.TID 0000.0001)      cg2d_iters(min,last) =      -1      14
(PID.TID 0000.0001)      cg2d_last_res =   1.72457838826317E-11
(PID.TID 0000.0001) // =======================================================
(PID.TID 0000.0001) // Begin MONITOR dynamic field statistics
(PID.TID 0000.0001) // =======================================================
(PID.TID 0000.0001) %MON time_tsnumber                =                    37
(PID.TID 0000.0001) %MON time_secondsf                =   1.3320000000000E+04
(PID.TID 0000.0001) %MON dynstat_eta_max              =   5.5591612270263E+03
(PID.TID 0000.0001) %MON dynstat_eta_min              =  -4.2186182749072E+03
(PID.TID 0000.0001) %MON dynstat_eta_mean             =  -1.2853618406557E-12
(PID.TID 0000.0001) %MON dynstat_eta_sd               =   3.3618438709259E+03
(PID.TID 0000.0001) %MON dynstat_eta_del2             =   8.3896219723522E-01
(PID.TID 0000.0001) %MON dynstat_uvel_max             =   3.5441867864152E+01
(PID.TID 0000.0001) %MON dynstat_uvel_min             =  -3.5442702092315E+01
(PID.TID 0000.0001) %MON dynstat_uvel_mean            =   1.4529277127182E+00
(PID.TID 0000.0001) %MON dynstat_uvel_sd              =   1.0610445428947E+01
(PID.TID 0000.0001) %MON dynstat_uvel_del2            =   1.9467042730707E-03
(PID.TID 0000.0001) %MON dynstat_vvel_max             =   3.5431491607203E+01
(PID.TID 0000.0001) %MON dynstat_vvel_min             =  -3.5386048887192E+01
(PID.TID 0000.0001) %MON dynstat_vvel_mean            =   1.4684930969119E+00
(PID.TID 0000.0001) %MON dynstat_vvel_sd              =   1.0608291280411E+01
(PID.TID 0000.0001) %MON dynstat_vvel_del2            =   1.9466168261476E-03
(PID.TID 0000.0001) %MON dynstat_wvel_max             =   3.1981705761330E-01
(PID.TID 0000.0001) %MON dynstat_wvel_min             =  -2.6144012740319E-01
(PID.TID 0000.0001) %MON dynstat_wvel_mean            =  -1.0063727669165E-17
(PID.TID 0000.0001) %MON dynstat_wvel_sd              =   1.0845958857519E-01
(PID.TID 0000.0001) %MON dynstat_wvel_del2            =   9.6586305637546E-05
(PID.TID 0000.0001) %MON dynstat_theta_max            =   1.1574052902572E+03
(PID.TID 0000.0001) %MON dynstat_theta_min            =   2.5832629784570E+02
(PID.TID 0000.0001) %MON dynstat_theta_mean           =   3.2785674469375E+02
(PID.TID 0000.0001) %MON dynstat_theta_sd             =   9.0427624568710E+01
(PID.TID 0000.0001) %MON dynstat_theta_del2           =   6.9415970556819E-04
(PID.TID 0000.0001) %MON dynstat_salt_max             =   2.1974527145736E-02
(PID.TID 0000.0001) %MON dynstat_salt_min             =   0.0000000000000E+00
(PID.TID 0000.0001) %MON dynstat_salt_mean            =   1.9305752228384E-03
(PID.TID 0000.0001) %MON dynstat_salt_sd              =   3.9584002634947E-03
(PID.TID 0000.0001) %MON dynstat_salt_del2            =   8.6087228500399E-07
(PID.TID 0000.0001) %MON advcfl_uvel_max              =   1.0711107223690E-01
(PID.TID 0000.0001) %MON advcfl_vvel_max              =   1.0708014045412E-01
(PID.TID 0000.0001) %MON advcfl_wvel_max              =   1.2691774343082E-02
(PID.TID 0000.0001) %MON advcfl_W_hf_max              =   1.4985303335587E-02
(PID.TID 0000.0001) %MON am_eta_mean                  =  -2.8848086872360E+11
(PID.TID 0000.0001) %MON am_uZo_mean                  =   2.8788045584236E+11
(PID.TID 0000.0001) %MON am_tot_mean                  =  -6.0041288123517E+08
(PID.TID 0000.0001) %MON pe_b_mean                    =   4.7867055798668E+01
(PID.TID 0000.0001) %MON ke_max                       =   6.3965028507191E+02
(PID.TID 0000.0001) %MON ke_mean                      =   1.1469243350240E+02
(PID.TID 0000.0001) %MON ke_vol                       =   5.0986421042785E+19
(PID.TID 0000.0001) %MON vort_r_min                   =  -1.5022382894128E-05
(PID.TID 0000.0001) %MON vort_r_max                   =   1.5013078204789E-05
(PID.TID 0000.0001) %MON vort_a_mean                  =   2.2062196564066E-20
(PID.TID 0000.0001) %MON vort_a_sd                    =   8.5506426304443E-05
(PID.TID 0000.0001) %MON vort_p_mean                  =   2.2062152463140E-20
(PID.TID 0000.0001) %MON vort_p_sd                    =   8.4260179683117E-05
(PID.TID 0000.0001) %MON surfExpan_theta_mean         =  -4.0811672306699E+00
(PID.TID 0000.0001) %MON surfExpan_salt_mean          =  -4.2787498285493E-04
(PID.TID 0000.0001) %MON surfExpan_Heat_mean          =  -3.6610286420054E+02
(PID.TID 0000.0001) %MON En_Budget_T2PE_mean          =   6.7210318915123E+01
(PID.TID 0000.0001) // =======================================================
(PID.TID 0000.0001) // End MONITOR dynamic field statistics
(PID.TID 0000.0001) // =======================================================
 cg2d: Sum(rhs),rhsMax =  -2.98023223876953E-08  4.58997847822213E+04
(PID.TID 0000.0001)      cg2d_init_res =   5.79812258591642E+04
(PID.TID 0000.0001)      cg2d_iters(min,last) =      -1      14
(PID.TID 0000.0001)      cg2d_last_res =   1.78879917054313E-11
(PID.TID 0000.0001) // =======================================================
(PID.TID 0000.0001) // Begin MONITOR dynamic field statistics
(PID.TID 0000.0001) // =======================================================
(PID.TID 0000.0001) %MON time_tsnumber                =                    38
(PID.TID 0000.0001) %MON time_secondsf                =   1.3680000000000E+04
(PID.TID 0000.0001) %MON dynstat_eta_max              =   5.7346443342961E+03
(PID.TID 0000.0001) %MON dynstat_eta_min              =  -4.3603902154267E+03
(PID.TID 0000.0001) %MON dynstat_eta_mean             =  -1.6281249981639E-12
(PID.TID 0000.0001) %MON dynstat_eta_sd               =   3.4713252961350E+03
(PID.TID 0000.0001) %MON dynstat_eta_del2             =   8.5048360507535E-01
(PID.TID 0000.0001) %MON dynstat_uvel_max             =   3.5884070838981E+01
(PID.TID 0000.0001) %MON dynstat_uvel_min             =  -3.5880169069500E+01
(PID.TID 0000.0001) %MON dynstat_uvel_mean            =   1.5000211357750E+00
(PID.TID 0000.0001) %MON dynstat_uvel_sd              =   1.0716441258366E+01
(PID.TID 0000.0001) %MON dynstat_uvel_del2            =   1.9618810296794E-03
(PID.TID 0000.0001) %MON dynstat_vvel_max             =   3.5869192145114E+01
(PID.TID 0000.0001) %MON dynstat_vvel_min             =  -3.5872363260612E+01
(PID.TID 0000.0001) %MON dynstat_vvel_mean            =   1.5162500598503E+00
(PID.TID 0000.0001) %MON dynstat_vvel_sd              =   1.0714128506248E+01
(PID.TID 0000.0001) %MON dynstat_vvel_del2            =   1.9616132279422E-03
(PID.TID 0000.0001) %MON dynstat_wvel_max             =   3.2301834957798E-01
(PID.TID 0000.0001) %MON dynstat_wvel_min             =  -2.5592269794785E-01
(PID.TID 0000.0001) %MON dynstat_wvel_mean            =   1.1070100436081E-16
(PID.TID 0000.0001) %MON dynstat_wvel_sd              =   1.0965705896880E-01
(PID.TID 0000.0001) %MON dynstat_wvel_del2            =   9.7062438442036E-05
(PID.TID 0000.0001) %MON dynstat_theta_max            =   1.1575592156398E+03
(PID.TID 0000.0001) %MON dynstat_theta_min            =   2.5837926031946E+02
(PID.TID 0000.0001) %MON dynstat_theta_mean           =   3.2785327573466E+02
(PID.TID 0000.0001) %MON dynstat_theta_sd             =   9.0431192436578E+01
(PID.TID 0000.0001) %MON dynstat_theta_del2           =   6.9034801203284E-04
(PID.TID 0000.0001) %MON dynstat_salt_max             =   2.2105937683780E-02
(PID.TID 0000.0001) %MON dynstat_salt_min             =   0.0000000000000E+00
(PID.TID 0000.0001) %MON dynstat_salt_mean            =   1.9358415752934E-03
(PID.TID 0000.0001) %MON dynstat_salt_sd              =   3.9682970574554E-03
(PID.TID 0000.0001) %MON dynstat_salt_del2            =   8.5855528529224E-07
(PID.TID 0000.0001) %MON advcfl_uvel_max              =   1.0815818545387E-01
(PID.TID 0000.0001) %MON advcfl_vvel_max              =   1.0812698876019E-01
(PID.TID 0000.0001) %MON advcfl_wvel_max              =   1.2897336415740E-02
(PID.TID 0000.0001) %MON advcfl_W_hf_max              =   1.5243717732081E-02
(PID.TID 0000.0001) %MON am_eta_mean                  =  -2.9841920054425E+11
(PID.TID 0000.0001) %MON am_uZo_mean                  =   2.9779462714893E+11
(PID.TID 0000.0001) %MON am_tot_mean                  =  -6.2457339531946E+08
(PID.TID 0000.0001) %MON pe_b_mean                    =   5.1035486771899E+01
(PID.TID 0000.0001) %MON ke_max                       =   6.5587771982950E+02
(PID.TID 0000.0001) %MON ke_mean                      =   1.1709187027213E+02
(PID.TID 0000.0001) %MON ke_vol                       =   5.0986421042785E+19
(PID.TID 0000.0001) %MON vort_r_min                   =  -1.5444866551823E-05
(PID.TID 0000.0001) %MON vort_r_max                   =   1.5435353733093E-05
(PID.TID 0000.0001) %MON vort_a_mean                  =  -3.6770327606777E-20
(PID.TID 0000.0001) %MON vort_a_sd                    =   8.5552943859399E-05
(PID.TID 0000.0001) %MON vort_p_mean                  =  -2.9416200546367E-20
(PID.TID 0000.0001) %MON vort_p_sd                    =   8.4262544358900E-05
(PID.TID 0000.0001) %MON surfExpan_theta_mean         =  -3.9514417366911E+00
(PID.TID 0000.0001) %MON surfExpan_salt_mean          =  -4.1750502007057E-04
(PID.TID 0000.0001) %MON surfExpan_Heat_mean          =  -3.5477070191543E+02
(PID.TID 0000.0001) %MON En_Budget_T2PE_mean          =   6.7446788079669E+01
(PID.TID 0000.0001) // =======================================================
(PID.TID 0000.0001) // End MONITOR dynamic field statistics
(PID.TID 0000.0001) // =======================================================
 cg2d: Sum(rhs),rhsMax =   7.45058059692383E-08  4.72472090285580E+04
(PID.TID 0000.0001)      cg2d_init_res =   5.61877695536498E+04
(PID.TID 0000.0001)      cg2d_iters(min,last) =      -1      14
(PID.TID 0000.0001)      cg2d_last_res =   1.84780165402217E-11
(PID.TID 0000.0001) // =======================================================
(PID.TID 0000.0001) // Begin MONITOR dynamic field statistics
(PID.TID 0000.0001) // =======================================================
(PID.TID 0000.0001) %MON time_tsnumber                =                    39
(PID.TID 0000.0001) %MON time_secondsf                =   1.4040000000000E+04
(PID.TID 0000.0001) %MON dynstat_eta_max              =   5.9031664763427E+03
(PID.TID 0000.0001) %MON dynstat_eta_min              =  -4.4987099249085E+03
(PID.TID 0000.0001) %MON dynstat_eta_mean             =   5.1414473626228E-13
(PID.TID 0000.0001) %MON dynstat_eta_sd               =   3.5773885418004E+03
(PID.TID 0000.0001) %MON dynstat_eta_del2             =   8.6158038948569E-01
(PID.TID 0000.0001) %MON dynstat_uvel_max             =   3.6329499811381E+01
(PID.TID 0000.0001) %MON dynstat_uvel_min             =  -3.6325576377973E+01
(PID.TID 0000.0001) %MON dynstat_uvel_mean            =   1.5456440050412E+00
(PID.TID 0000.0001) %MON dynstat_uvel_sd              =   1.0815651894123E+01
(PID.TID 0000.0001) %MON dynstat_uvel_del2            =   1.9763011557395E-03
(PID.TID 0000.0001) %MON dynstat_vvel_max             =   3.6314406031328E+01
(PID.TID 0000.0001) %MON dynstat_vvel_min             =  -3.6317552954180E+01
(PID.TID 0000.0001) %MON dynstat_vvel_mean            =   1.5625347003859E+00
(PID.TID 0000.0001) %MON dynstat_vvel_sd              =   1.0813179964458E+01
(PID.TID 0000.0001) %MON dynstat_vvel_del2            =   1.9758424212624E-03
(PID.TID 0000.0001) %MON dynstat_wvel_max             =   3.2623174650448E-01
(PID.TID 0000.0001) %MON dynstat_wvel_min             =  -2.4978451481223E-01
(PID.TID 0000.0001) %MON dynstat_wvel_mean            =   5.5350502180406E-17
(PID.TID 0000.0001) %MON dynstat_wvel_sd              =   1.1076573729484E-01
(PID.TID 0000.0001) %MON dynstat_wvel_del2            =   9.7500597100526E-05
(PID.TID 0000.0001) %MON dynstat_theta_max            =   1.1577232651468E+03
(PID.TID 0000.0001) %MON dynstat_theta_min            =   2.5843074486545E+02
(PID.TID 0000.0001) %MON dynstat_theta_mean           =   3.2784970143295E+02
(PID.TID 0000.0001) %MON dynstat_theta_sd             =   9.0434796520326E+01
(PID.TID 0000.0001) %MON dynstat_theta_del2           =   6.8746579929816E-04
(PID.TID 0000.0001) %MON dynstat_salt_max             =   2.2214369154246E-02
(PID.TID 0000.0001) %MON dynstat_salt_min             =   2.4955119348538-239
(PID.TID 0000.0001) %MON dynstat_salt_mean            =   1.9412785522986E-03
(PID.TID 0000.0001) %MON dynstat_salt_sd              =   3.9786381800775E-03
(PID.TID 0000.0001) %MON dynstat_salt_del2            =   8.5336509893356E-07
(PID.TID 0000.0001) %MON advcfl_uvel_max              =   1.0906967371877E-01
(PID.TID 0000.0001) %MON advcfl_vvel_max              =   1.0903793712278E-01
(PID.TID 0000.0001) %MON advcfl_wvel_max              =   1.3104684089063E-02
(PID.TID 0000.0001) %MON advcfl_W_hf_max              =   1.5498844696768E-02
(PID.TID 0000.0001) %MON am_eta_mean                  =  -3.0807123465733E+11
(PID.TID 0000.0001) %MON am_uZo_mean                  =   3.0742492926639E+11
(PID.TID 0000.0001) %MON am_tot_mean                  =  -6.4630539093384E+08
(PID.TID 0000.0001) %MON pe_b_mean                    =   5.4201818608542E+01
(PID.TID 0000.0001) %MON ke_max                       =   6.7132978322213E+02
(PID.TID 0000.0001) %MON ke_mean                      =   1.1936685845951E+02
(PID.TID 0000.0001) %MON ke_vol                       =   5.0986421042785E+19
(PID.TID 0000.0001) %MON vort_r_min                   =  -1.5846373774045E-05
(PID.TID 0000.0001) %MON vort_r_max                   =   1.5836747879387E-05
(PID.TID 0000.0001) %MON vort_a_mean                  =  -2.2062196564066E-20
(PID.TID 0000.0001) %MON vort_a_sd                    =   8.5598321750317E-05
(PID.TID 0000.0001) %MON vort_p_mean                  =  -2.4513498119740E-20
(PID.TID 0000.0001) %MON vort_p_sd                    =   8.4264981441179E-05
(PID.TID 0000.0001) %MON surfExpan_theta_mean         =  -3.8109492701198E+00
(PID.TID 0000.0001) %MON surfExpan_salt_mean          =  -4.0594427576631E-04
(PID.TID 0000.0001) %MON surfExpan_Heat_mean          =  -3.4244862060480E+02
(PID.TID 0000.0001) %MON En_Budget_T2PE_mean          =   6.7595402564459E+01
(PID.TID 0000.0001) // =======================================================
(PID.TID 0000.0001) // End MONITOR dynamic field statistics
(PID.TID 0000.0001) // =======================================================
 cg2d: Sum(rhs),rhsMax =   6.33299350738525E-08  4.85314068402930E+04
(PID.TID 0000.0001)      cg2d_init_res =   5.42393802167267E+04
(PID.TID 0000.0001)      cg2d_iters(min,last) =      -1      14
(PID.TID 0000.0001)      cg2d_last_res =   1.90038174626028E-11
(PID.TID 0000.0001) // =======================================================
(PID.TID 0000.0001) // Begin MONITOR dynamic field statistics
(PID.TID 0000.0001) // =======================================================
(PID.TID 0000.0001) %MON time_tsnumber                =                    40
(PID.TID 0000.0001) %MON time_secondsf                =   1.4400000000000E+04
(PID.TID 0000.0001) %MON dynstat_eta_max              =   6.0637955629668E+03
(PID.TID 0000.0001) %MON dynstat_eta_min              =  -4.6332255765727E+03
(PID.TID 0000.0001) %MON dynstat_eta_mean             =   3.4276315750819E-13
(PID.TID 0000.0001) %MON dynstat_eta_sd               =   3.6797315041189E+03
(PID.TID 0000.0001) %MON dynstat_eta_del2             =   8.7229438386733E-01
(PID.TID 0000.0001) %MON dynstat_uvel_max             =   3.6733485588189E+01
(PID.TID 0000.0001) %MON dynstat_uvel_min             =  -3.6729544886059E+01
(PID.TID 0000.0001) %MON dynstat_uvel_mean            =   1.5896771368140E+00
(PID.TID 0000.0001) %MON dynstat_uvel_sd              =   1.0908618980212E+01
(PID.TID 0000.0001) %MON dynstat_uvel_del2            =   1.9901143062024E-03
(PID.TID 0000.0001) %MON dynstat_vvel_max             =   3.6718191751988E+01
(PID.TID 0000.0001) %MON dynstat_vvel_min             =  -3.6721311955784E+01
(PID.TID 0000.0001) %MON dynstat_vvel_mean            =   1.6072265157809E+00
(PID.TID 0000.0001) %MON dynstat_vvel_sd              =   1.0905987561581E+01
(PID.TID 0000.0001) %MON dynstat_vvel_del2            =   1.9894285263888E-03
(PID.TID 0000.0001) %MON dynstat_wvel_max             =   3.2953614832650E-01
(PID.TID 0000.0001) %MON dynstat_wvel_min             =  -2.4301200245399E-01
(PID.TID 0000.0001) %MON dynstat_wvel_mean            =   1.0063727669165E-16
(PID.TID 0000.0001) %MON dynstat_wvel_sd              =   1.1178942657069E-01
(PID.TID 0000.0001) %MON dynstat_wvel_del2            =   9.7910704189344E-05
(PID.TID 0000.0001) %MON dynstat_theta_max            =   1.1579071695275E+03
(PID.TID 0000.0001) %MON dynstat_theta_min            =   2.5848082562800E+02
(PID.TID 0000.0001) %MON dynstat_theta_mean           =   3.2784603061297E+02
(PID.TID 0000.0001) %MON dynstat_theta_sd             =   9.0438430665088E+01
(PID.TID 0000.0001) %MON dynstat_theta_del2           =   6.8640498557300E-04
(PID.TID 0000.0001) %MON dynstat_salt_max             =   2.2352664180877E-02
(PID.TID 0000.0001) %MON dynstat_salt_min             =   4.7214660611091-209
(PID.TID 0000.0001) %MON dynstat_salt_mean            =   1.9468853495002E-03
(PID.TID 0000.0001) %MON dynstat_salt_sd              =   3.9893846552441E-03
(PID.TID 0000.0001) %MON dynstat_salt_del2            =   8.4807671297691E-07
(PID.TID 0000.0001) %MON advcfl_uvel_max              =   1.0984632803685E-01
(PID.TID 0000.0001) %MON advcfl_vvel_max              =   1.0981369280651E-01
(PID.TID 0000.0001) %MON advcfl_wvel_max              =   1.3310066058583E-02
(PID.TID 0000.0001) %MON advcfl_W_hf_max              =   1.5752445685291E-02
(PID.TID 0000.0001) %MON am_eta_mean                  =  -3.1740832737398E+11
(PID.TID 0000.0001) %MON am_uZo_mean                  =   3.1674318647817E+11
(PID.TID 0000.0001) %MON am_tot_mean                  =  -6.6514089581659E+08
(PID.TID 0000.0001) %MON pe_b_mean                    =   5.7347421720756E+01
(PID.TID 0000.0001) %MON ke_max                       =   6.8600452300398E+02
(PID.TID 0000.0001) %MON ke_mean                      =   1.2152439161071E+02
(PID.TID 0000.0001) %MON ke_vol                       =   5.0986421042784E+19
(PID.TID 0000.0001) %MON vort_r_min                   =  -1.6225471647225E-05
(PID.TID 0000.0001) %MON vort_r_max                   =   1.6215843802763E-05
(PID.TID 0000.0001) %MON vort_a_mean                  =   2.2552467598823E-19
(PID.TID 0000.0001) %MON vort_a_sd                    =   8.5642423889797E-05
(PID.TID 0000.0001) %MON vort_p_mean                  =   2.2552416073328E-19
(PID.TID 0000.0001) %MON vort_p_sd                    =   8.4267491412427E-05
(PID.TID 0000.0001) %MON surfExpan_theta_mean         =  -3.6601867193918E+00
(PID.TID 0000.0001) %MON surfExpan_salt_mean          =  -3.9321606054134E-04
(PID.TID 0000.0001) %MON surfExpan_Heat_mean          =  -3.2917894815254E+02
(PID.TID 0000.0001) %MON En_Budget_T2PE_mean          =   6.7657261654430E+01
(PID.TID 0000.0001) // =======================================================
(PID.TID 0000.0001) // End MONITOR dynamic field statistics
(PID.TID 0000.0001) // =======================================================
(PID.TID 0000.0001) DIAGSTATS_CLOSE_IO: close file: dynStDiag.0000000000.txt , unit=     9
(PID.TID 0000.0001) DIAGSTATS_CLOSE_IO: close file: diffStDiag.0000000000.txt , unit=    10
(PID.TID 0000.0001) DIAGSTATS_CLOSE_IO: close file: flxStDiag.0000000000.txt , unit=    16
(PID.TID 0000.0001) %CHECKPOINT        40 ckptA
(PID.TID 0000.0001)   Seconds in section "ALL                    [THE_MODEL_MAIN]":
(PID.TID 0000.0001)           User time:   129.09999999999999
(PID.TID 0000.0001)         System time:  0.83000000000000007
(PID.TID 0000.0001)     Wall clock time:   130.22254395484924
(PID.TID 0000.0001)          No. starts:           1
(PID.TID 0000.0001)           No. stops:           1
(PID.TID 0000.0001)   Seconds in section "INITIALISE_FIXED       [THE_MODEL_MAIN]":
(PID.TID 0000.0001)           User time:  0.29999999999999999
(PID.TID 0000.0001)         System time:  2.99999999999999989E-002
(PID.TID 0000.0001)     Wall clock time:  0.32979512214660645
(PID.TID 0000.0001)          No. starts:           1
(PID.TID 0000.0001)           No. stops:           1
(PID.TID 0000.0001)   Seconds in section "THE_MAIN_LOOP          [THE_MODEL_MAIN]":
(PID.TID 0000.0001)           User time:   128.79999999999998
(PID.TID 0000.0001)         System time:  0.80000000000000004
(PID.TID 0000.0001)     Wall clock time:   129.89270591735840
(PID.TID 0000.0001)          No. starts:           1
(PID.TID 0000.0001)           No. stops:           1
(PID.TID 0000.0001)   Seconds in section "INITIALISE_VARIA    [THE_MAIN_LOOP]":
(PID.TID 0000.0001)           User time:   1.3200000000000001
(PID.TID 0000.0001)         System time:  8.99999999999999967E-002
(PID.TID 0000.0001)     Wall clock time:   1.4157800674438477
(PID.TID 0000.0001)          No. starts:           1
(PID.TID 0000.0001)           No. stops:           1
(PID.TID 0000.0001)   Seconds in section "MAIN LOOP           [THE_MAIN_LOOP]":
(PID.TID 0000.0001)           User time:   127.47999999999999
(PID.TID 0000.0001)         System time:  0.71000000000000008
(PID.TID 0000.0001)     Wall clock time:   128.47689318656921
(PID.TID 0000.0001)          No. starts:           1
(PID.TID 0000.0001)           No. stops:           1
(PID.TID 0000.0001)   Seconds in section "MAIN_DO_LOOP        [THE_MAIN_LOOP]":
(PID.TID 0000.0001)           User time:   127.47999999999995
(PID.TID 0000.0001)         System time:  0.71000000000000019
(PID.TID 0000.0001)     Wall clock time:   128.47652053833008
(PID.TID 0000.0001)          No. starts:          40
(PID.TID 0000.0001)           No. stops:          40
(PID.TID 0000.0001)   Seconds in section "FORWARD_STEP        [MAIN_DO_LOOP]":
(PID.TID 0000.0001)           User time:   127.47999999999995
(PID.TID 0000.0001)         System time:  0.71000000000000019
(PID.TID 0000.0001)     Wall clock time:   128.47578406333923
(PID.TID 0000.0001)          No. starts:          40
(PID.TID 0000.0001)           No. stops:          40
(PID.TID 0000.0001)   Seconds in section "DO_STATEVARS_DIAGS  [FORWARD_STEP]":
(PID.TID 0000.0001)           User time:   7.2400000000000375
(PID.TID 0000.0001)         System time:   0.0000000000000000
(PID.TID 0000.0001)     Wall clock time:   7.1757519245147705
(PID.TID 0000.0001)          No. starts:         120
(PID.TID 0000.0001)           No. stops:         120
(PID.TID 0000.0001)   Seconds in section "LOAD_FIELDS_DRIVER  [FORWARD_STEP]":
(PID.TID 0000.0001)           User time:  0.12999999999998124
(PID.TID 0000.0001)         System time:   0.0000000000000000
(PID.TID 0000.0001)     Wall clock time:  0.12624073028564453
(PID.TID 0000.0001)          No. starts:          40
(PID.TID 0000.0001)           No. stops:          40
(PID.TID 0000.0001)   Seconds in section "EXTERNAL_FLDS_LOAD [LOAD_FLDS_DRIVER]":
(PID.TID 0000.0001)           User time:   0.0000000000000000
(PID.TID 0000.0001)         System time:   0.0000000000000000
(PID.TID 0000.0001)     Wall clock time:  3.85522842407226563E-004
(PID.TID 0000.0001)          No. starts:          40
(PID.TID 0000.0001)           No. stops:          40
(PID.TID 0000.0001)   Seconds in section "CPL_EXPORT-IMPORT  [FORWARD_STEP]":
(PID.TID 0000.0001)           User time:  2.00000000000102318E-002
(PID.TID 0000.0001)         System time:   0.0000000000000000
(PID.TID 0000.0001)     Wall clock time:  1.31096839904785156E-002
(PID.TID 0000.0001)          No. starts:          40
(PID.TID 0000.0001)           No. stops:          40
(PID.TID 0000.0001)   Seconds in section "DO_ATMOSPHERIC_PHYS [FORWARD_STEP]":
(PID.TID 0000.0001)           User time:   18.760000000000034
(PID.TID 0000.0001)         System time:  0.68000000000000016
(PID.TID 0000.0001)     Wall clock time:   19.502166509628296
(PID.TID 0000.0001)          No. starts:          40
(PID.TID 0000.0001)           No. stops:          40
(PID.TID 0000.0001)   Seconds in section "ATM_PHYS_DRIVER [DO_ATMOSPHERIC_PHYS]":
(PID.TID 0000.0001)           User time:   18.270000000000024
(PID.TID 0000.0001)         System time:  0.68000000000000016
(PID.TID 0000.0001)     Wall clock time:   18.967142820358276
(PID.TID 0000.0001)          No. starts:          40
(PID.TID 0000.0001)           No. stops:          40
(PID.TID 0000.0001)   Seconds in section "DO_OCEANIC_PHYS     [FORWARD_STEP]":
(PID.TID 0000.0001)           User time:  2.00000000000102318E-002
(PID.TID 0000.0001)         System time:   0.0000000000000000
(PID.TID 0000.0001)     Wall clock time:  9.21440124511718750E-003
(PID.TID 0000.0001)          No. starts:          40
(PID.TID 0000.0001)           No. stops:          40
(PID.TID 0000.0001)   Seconds in section "DYNAMICS            [FORWARD_STEP]":
(PID.TID 0000.0001)           User time:   27.620000000000047
(PID.TID 0000.0001)         System time:   0.0000000000000000
(PID.TID 0000.0001)     Wall clock time:   27.715946197509766
(PID.TID 0000.0001)          No. starts:          40
(PID.TID 0000.0001)           No. stops:          40
(PID.TID 0000.0001)   Seconds in section "UPDATE_R_STAR       [FORWARD_STEP]":
(PID.TID 0000.0001)           User time:   2.0499999999999829
(PID.TID 0000.0001)         System time:   0.0000000000000000
(PID.TID 0000.0001)     Wall clock time:   2.0553250312805176
(PID.TID 0000.0001)          No. starts:          40
(PID.TID 0000.0001)           No. stops:          40
(PID.TID 0000.0001)   Seconds in section "UPDATE_CG2D         [FORWARD_STEP]":
(PID.TID 0000.0001)           User time:  0.75999999999999091
(PID.TID 0000.0001)         System time:   0.0000000000000000
(PID.TID 0000.0001)     Wall clock time:  0.77844977378845215
(PID.TID 0000.0001)          No. starts:          40
(PID.TID 0000.0001)           No. stops:          40
(PID.TID 0000.0001)   Seconds in section "SOLVE_FOR_PRESSURE  [FORWARD_STEP]":
(PID.TID 0000.0001)           User time:   2.6400000000000006
(PID.TID 0000.0001)         System time:   0.0000000000000000
(PID.TID 0000.0001)     Wall clock time:   2.6132979393005371
(PID.TID 0000.0001)          No. starts:          40
(PID.TID 0000.0001)           No. stops:          40
(PID.TID 0000.0001)   Seconds in section "MOM_CORRECTION_STEP [FORWARD_STEP]":
(PID.TID 0000.0001)           User time:   14.659999999999982
(PID.TID 0000.0001)         System time:   0.0000000000000000
(PID.TID 0000.0001)     Wall clock time:   14.706380128860474
(PID.TID 0000.0001)          No. starts:          40
(PID.TID 0000.0001)           No. stops:          40
(PID.TID 0000.0001)   Seconds in section "SHAP_FILT_UV       [MOM_CORR_STEP]":
(PID.TID 0000.0001)           User time:   13.789999999999992
(PID.TID 0000.0001)         System time:   0.0000000000000000
(PID.TID 0000.0001)     Wall clock time:   13.805646657943726
(PID.TID 0000.0001)          No. starts:          40
(PID.TID 0000.0001)           No. stops:          40
(PID.TID 0000.0001)   Seconds in section "INTEGR_CONTINUITY   [FORWARD_STEP]":
(PID.TID 0000.0001)           User time:   2.3900000000000148
(PID.TID 0000.0001)         System time:   0.0000000000000000
(PID.TID 0000.0001)     Wall clock time:   2.4047906398773193
(PID.TID 0000.0001)          No. starts:          40
(PID.TID 0000.0001)           No. stops:          40
(PID.TID 0000.0001)   Seconds in section "CALC_R_STAR         [FORWARD_STEP]":
(PID.TID 0000.0001)           User time:  0.29999999999998295
(PID.TID 0000.0001)         System time:   0.0000000000000000
(PID.TID 0000.0001)     Wall clock time:  0.24723005294799805
(PID.TID 0000.0001)          No. starts:          40
(PID.TID 0000.0001)           No. stops:          40
(PID.TID 0000.0001)   Seconds in section "BLOCKING_EXCHANGES  [FORWARD_STEP]":
(PID.TID 0000.0001)           User time:   1.7900000000000773
(PID.TID 0000.0001)         System time:   0.0000000000000000
(PID.TID 0000.0001)     Wall clock time:   1.7998778820037842
(PID.TID 0000.0001)          No. starts:          80
(PID.TID 0000.0001)           No. stops:          80
(PID.TID 0000.0001)   Seconds in section "THERMODYNAMICS      [FORWARD_STEP]":
(PID.TID 0000.0001)           User time:   29.239999999999938
(PID.TID 0000.0001)         System time:   0.0000000000000000
(PID.TID 0000.0001)     Wall clock time:   29.311347723007202
(PID.TID 0000.0001)          No. starts:          40
(PID.TID 0000.0001)           No. stops:          40
(PID.TID 0000.0001)   Seconds in section "TRC_CORRECTION_STEP [FORWARD_STEP]":
(PID.TID 0000.0001)           User time:   5.4300000000000068
(PID.TID 0000.0001)         System time:   0.0000000000000000
(PID.TID 0000.0001)     Wall clock time:   5.4594361782073975
(PID.TID 0000.0001)          No. starts:          40
(PID.TID 0000.0001)           No. stops:          40
(PID.TID 0000.0001)   Seconds in section "SHAP_FILT_TS       [TRC_CORR_STEP]":
(PID.TID 0000.0001)           User time:   5.4300000000000068
(PID.TID 0000.0001)         System time:   0.0000000000000000
(PID.TID 0000.0001)     Wall clock time:   5.4585909843444824
(PID.TID 0000.0001)          No. starts:          40
(PID.TID 0000.0001)           No. stops:          40
(PID.TID 0000.0001)   Seconds in section "MONITOR             [FORWARD_STEP]":
(PID.TID 0000.0001)           User time:   14.259999999999962
(PID.TID 0000.0001)         System time:  1.00000000000000089E-002
(PID.TID 0000.0001)     Wall clock time:   14.362982034683228
(PID.TID 0000.0001)          No. starts:          40
(PID.TID 0000.0001)           No. stops:          40
(PID.TID 0000.0001)   Seconds in section "DO_THE_MODEL_IO     [FORWARD_STEP]":
(PID.TID 0000.0001)           User time:  6.99999999999931788E-002
(PID.TID 0000.0001)         System time:  1.00000000000000089E-002
(PID.TID 0000.0001)     Wall clock time:  7.54730701446533203E-002
(PID.TID 0000.0001)          No. starts:          40
(PID.TID 0000.0001)           No. stops:          40
(PID.TID 0000.0001)   Seconds in section "DO_WRITE_PICKUP     [FORWARD_STEP]":
(PID.TID 0000.0001)           User time:  9.00000000000034106E-002
(PID.TID 0000.0001)         System time:  1.00000000000000089E-002
(PID.TID 0000.0001)     Wall clock time:  0.10977864265441895
(PID.TID 0000.0001)          No. starts:          40
(PID.TID 0000.0001)           No. stops:          40
(PID.TID 0000.0001) // ======================================================
(PID.TID 0000.0001) // Tile <-> Tile communication statistics
(PID.TID 0000.0001) // ======================================================
(PID.TID 0000.0001) // o Tile number: 000001
(PID.TID 0000.0001) //         No. X exchanges =              0
(PID.TID 0000.0001) //            Max. X spins =              0
(PID.TID 0000.0001) //            Min. X spins =     1000000000
(PID.TID 0000.0001) //          Total. X spins =              0
(PID.TID 0000.0001) //            Avg. X spins =       0.00E+00
(PID.TID 0000.0001) //         No. Y exchanges =              0
(PID.TID 0000.0001) //            Max. Y spins =              0
(PID.TID 0000.0001) //            Min. Y spins =     1000000000
(PID.TID 0000.0001) //          Total. Y spins =              0
(PID.TID 0000.0001) //            Avg. Y spins =       0.00E+00
(PID.TID 0000.0001) // o Tile number: 000002
(PID.TID 0000.0001) //         No. X exchanges =              0
(PID.TID 0000.0001) //            Max. X spins =              0
(PID.TID 0000.0001) //            Min. X spins =     1000000000
(PID.TID 0000.0001) //          Total. X spins =              0
(PID.TID 0000.0001) //            Avg. X spins =       0.00E+00
(PID.TID 0000.0001) //         No. Y exchanges =              0
(PID.TID 0000.0001) //            Max. Y spins =              0
(PID.TID 0000.0001) //            Min. Y spins =     1000000000
(PID.TID 0000.0001) //          Total. Y spins =              0
(PID.TID 0000.0001) //            Avg. Y spins =       0.00E+00
(PID.TID 0000.0001) // o Tile number: 000003
(PID.TID 0000.0001) //         No. X exchanges =              0
(PID.TID 0000.0001) //            Max. X spins =              0
(PID.TID 0000.0001) //            Min. X spins =     1000000000
(PID.TID 0000.0001) //          Total. X spins =              0
(PID.TID 0000.0001) //            Avg. X spins =       0.00E+00
(PID.TID 0000.0001) //         No. Y exchanges =              0
(PID.TID 0000.0001) //            Max. Y spins =              0
(PID.TID 0000.0001) //            Min. Y spins =     1000000000
(PID.TID 0000.0001) //          Total. Y spins =              0
(PID.TID 0000.0001) //            Avg. Y spins =       0.00E+00
(PID.TID 0000.0001) // o Tile number: 000004
(PID.TID 0000.0001) //         No. X exchanges =              0
(PID.TID 0000.0001) //            Max. X spins =              0
(PID.TID 0000.0001) //            Min. X spins =     1000000000
(PID.TID 0000.0001) //          Total. X spins =              0
(PID.TID 0000.0001) //            Avg. X spins =       0.00E+00
(PID.TID 0000.0001) //         No. Y exchanges =              0
(PID.TID 0000.0001) //            Max. Y spins =              0
(PID.TID 0000.0001) //            Min. Y spins =     1000000000
(PID.TID 0000.0001) //          Total. Y spins =              0
(PID.TID 0000.0001) //            Avg. Y spins =       0.00E+00
(PID.TID 0000.0001) // o Tile number: 000005
(PID.TID 0000.0001) //         No. X exchanges =              0
(PID.TID 0000.0001) //            Max. X spins =              0
(PID.TID 0000.0001) //            Min. X spins =     1000000000
(PID.TID 0000.0001) //          Total. X spins =              0
(PID.TID 0000.0001) //            Avg. X spins =       0.00E+00
(PID.TID 0000.0001) //         No. Y exchanges =              0
(PID.TID 0000.0001) //            Max. Y spins =              0
(PID.TID 0000.0001) //            Min. Y spins =     1000000000
(PID.TID 0000.0001) //          Total. Y spins =              0
(PID.TID 0000.0001) //            Avg. Y spins =       0.00E+00
(PID.TID 0000.0001) // o Tile number: 000006
(PID.TID 0000.0001) //         No. X exchanges =              0
(PID.TID 0000.0001) //            Max. X spins =              0
(PID.TID 0000.0001) //            Min. X spins =     1000000000
(PID.TID 0000.0001) //          Total. X spins =              0
(PID.TID 0000.0001) //            Avg. X spins =       0.00E+00
(PID.TID 0000.0001) //         No. Y exchanges =              0
(PID.TID 0000.0001) //            Max. Y spins =              0
(PID.TID 0000.0001) //            Min. Y spins =     1000000000
(PID.TID 0000.0001) //          Total. Y spins =              0
(PID.TID 0000.0001) //            Avg. Y spins =       0.00E+00
(PID.TID 0000.0001) // o Thread number: 000001
(PID.TID 0000.0001) //            No. barriers =          17532
(PID.TID 0000.0001) //      Max. barrier spins =              1
(PID.TID 0000.0001) //      Min. barrier spins =              1
(PID.TID 0000.0001) //     Total barrier spins =          17532
(PID.TID 0000.0001) //      Avg. barrier spins =       1.00E+00
PROGRAM MAIN: Execution ended Normally
