(PID.TID 0000.0001) 
(PID.TID 0000.0001) // ======================================================
(PID.TID 0000.0001) //                      MITgcm UV
(PID.TID 0000.0001) //                      =========
(PID.TID 0000.0001) // ======================================================
(PID.TID 0000.0001) // execution environment starting up...
(PID.TID 0000.0001) 
(PID.TID 0000.0001) // MITgcmUV version:  checkpoint64o
(PID.TID 0000.0001) // Build user:        jmc
(PID.TID 0000.0001) // Build host:        baudelaire
(PID.TID 0000.0001) // Build date:        Wed Sep 25 14:55:33 EDT 2013
(PID.TID 0000.0001) 
(PID.TID 0000.0001) // =======================================================
(PID.TID 0000.0001) // Execution Environment parameter file "eedata"
(PID.TID 0000.0001) // =======================================================
(PID.TID 0000.0001) ># Example "eedata" file
(PID.TID 0000.0001) ># Lines beginning "#" are comments
(PID.TID 0000.0001) ># nTx - No. threads per process in X
(PID.TID 0000.0001) ># nTy - No. threads per process in Y
(PID.TID 0000.0001) > &EEPARMS
(PID.TID 0000.0001) > useCoupler=.TRUE.,
(PID.TID 0000.0001) > useCubedSphereExchange=.TRUE.,
(PID.TID 0000.0001) > nTx=1,
(PID.TID 0000.0001) > nTy=1,
(PID.TID 0000.0001) >#debugMode=.TRUE.,
(PID.TID 0000.0001) > /
(PID.TID 0000.0001) ># Note: Some systems use & as the namelist terminator (as shown here).
(PID.TID 0000.0001) >#       Other systems use a / character.
(PID.TID 0000.0001) 
(PID.TID 0000.0001) // =======================================================
(PID.TID 0000.0001) // Computational Grid Specification ( see files "SIZE.h" )
(PID.TID 0000.0001) //                                  ( and "eedata"       )
(PID.TID 0000.0001) // =======================================================
(PID.TID 0000.0001)      nPx =    1 ; /* No. processes in X */
(PID.TID 0000.0001)      nPy =    1 ; /* No. processes in Y */
(PID.TID 0000.0001)      nSx =    6 ; /* No. tiles in X per process */
(PID.TID 0000.0001)      nSy =    1 ; /* No. tiles in Y per process */
(PID.TID 0000.0001)      sNx =   32 ; /* Tile size in X */
(PID.TID 0000.0001)      sNy =   32 ; /* Tile size in Y */
(PID.TID 0000.0001)      OLx =    4 ; /* Tile overlap distance in X */
(PID.TID 0000.0001)      OLy =    4 ; /* Tile overlap distance in Y */
(PID.TID 0000.0001)      nTx =    1 ; /* No. threads in X per process */
(PID.TID 0000.0001)      nTy =    1 ; /* No. threads in Y per process */
(PID.TID 0000.0001)       Nr =   26 ; /* No. levels in the vertical   */
(PID.TID 0000.0001)       Nx =  192 ; /* Total domain size in X ( = nPx*nSx*sNx ) */
(PID.TID 0000.0001)       Ny =   32 ; /* Total domain size in Y ( = nPy*nSy*sNy ) */
(PID.TID 0000.0001)   nTiles =    6 ; /* Total no. tiles per process ( = nSx*nSy ) */
(PID.TID 0000.0001)   nProcs =    1 ; /* Total no. processes ( = nPx*nPy ) */
(PID.TID 0000.0001) nThreads =    1 ; /* Total no. threads per process ( = nTx*nTy ) */
(PID.TID 0000.0001) usingMPI =    T ; /* Flag used to control whether MPI is in use */
(PID.TID 0000.0001)                   /*  note: To execute a program with MPI calls */
(PID.TID 0000.0001)                   /*  it must be launched appropriately e.g     */
(PID.TID 0000.0001)                   /*  "mpirun -np 64 ......"                    */
(PID.TID 0000.0001) useCoupler=    T ;/* Flag used to control communications with   */
(PID.TID 0000.0001)                   /*  other model components, through a coupler */
(PID.TID 0000.0001) debugMode =    F ; /* print debug msg. (sequence of S/R calls)  */
(PID.TID 0000.0001) printMapIncludesZeros=    F ; /* print zeros in Std.Output maps */
(PID.TID 0000.0001) maxLengthPrt1D=   65 /* maxLength of 1D array printed to StdOut */
(PID.TID 0000.0001) 
(PID.TID 0000.0001) ======= Starting MPI parallel Run =========
(PID.TID 0000.0001)  My Processor Name (len: 10 ) = baudelaire
(PID.TID 0000.0001)  Located at (  0,  0) on processor grid (0:  0,0:  0)
(PID.TID 0000.0001)  Origin at  (     1,     1) on global grid (1:   192,1:    32)
(PID.TID 0000.0001)  North neighbor = processor 0000
(PID.TID 0000.0001)  South neighbor = processor 0000
(PID.TID 0000.0001)   East neighbor = processor 0000
(PID.TID 0000.0001)   West neighbor = processor 0000
(PID.TID 0000.0001) // ======================================================
(PID.TID 0000.0001) // Mapping of tiles to threads
(PID.TID 0000.0001) // ======================================================
(PID.TID 0000.0001) // -o- Thread   1, tiles (   1:   6,   1:   1)
(PID.TID 0000.0001) 
(PID.TID 0000.0001) W2_READPARMS: file data.exch2 not found
(PID.TID 0000.0001) => use W2_EXCH2 default: regular 6-facets Cube
(PID.TID 0000.0001) W2_useE2ioLayOut=    T ;/* T: use Exch2 glob IO map; F: use model default */
(PID.TID 0000.0001) W2_mapIO        =  -1 ; /* select option for Exch2 global-IO map */
(PID.TID 0000.0001) W2_printMsg     =  -1 ; /* select option for printing information */
(PID.TID 0000.0001) ===== Start setting W2 TOPOLOGY:
(PID.TID 0000.0001)  write to log-file: w2_tile_topology.0000.log
(PID.TID 0000.0001) =====       setting W2 TOPOLOGY: Done
(PID.TID 0000.0001) 
(PID.TID 0000.0001)  INI_PARMS: opening model parameter file "data"
(PID.TID 0000.0001)  OPEN_COPY_DATA_FILE: opening file data
(PID.TID 0000.0001) // =======================================================
(PID.TID 0000.0001) // Parameter file "data"
(PID.TID 0000.0001) // =======================================================
(PID.TID 0000.0001) ># ====================
(PID.TID 0000.0001) ># | Model parameters |
(PID.TID 0000.0001) ># ====================
(PID.TID 0000.0001) >#
(PID.TID 0000.0001) ># Continuous equation parameters
(PID.TID 0000.0001) > &PARM01
(PID.TID 0000.0001) >#- mean theta* from H&S, isothermal (T=200.K) above p=150.mb:
(PID.TID 0000.0001) > tRef= 295.1, 295.2, 295.4, 295.6, 296.0, 296.6, 297.3, 298.2, 299.3, 300.6,
(PID.TID 0000.0001) >       302.4, 305.9, 311.8, 321.8, 338.3, 359.5, 382.8, 408.6, 437.5, 470.6,
(PID.TID 0000.0001) >       509.2, 555.8, 614.9, 696.3, 827.2, 1153.6,
(PID.TID 0000.0001) >#tRef=26*280.,
(PID.TID 0000.0001) > sRef=26*0.,
(PID.TID 0000.0001) > viscAr=0.E1,
(PID.TID 0000.0001) > viscAh=0.E6,
(PID.TID 0000.0001) > viscA4=0.E17,
(PID.TID 0000.0001) > no_slip_sides=.FALSE.,
(PID.TID 0000.0001) > no_slip_bottom=.FALSE.,
(PID.TID 0000.0001) > diffKhT=0.E3,
(PID.TID 0000.0001) > diffKrT=0.,
(PID.TID 0000.0001) > diffK4T=0.E17,
(PID.TID 0000.0001) > diffKrS=0.E2,
(PID.TID 0000.0001) > diffKhS=0.E3,
(PID.TID 0000.0001) > diffK4S=0.E17,
(PID.TID 0000.0001) > buoyancyRelation='ATMOSPHERIC',
(PID.TID 0000.0001) > eosType='IDEALG',
(PID.TID 0000.0001) > atm_Cp=1004.64,
(PID.TID 0000.0001) > atm_Rq=0.6078,
(PID.TID 0000.0001) > Integr_GeoPot=2,
(PID.TID 0000.0001) > selectFindRoSurf=1,
(PID.TID 0000.0001) > gravity=9.80,
(PID.TID 0000.0001) > rhonil=1.0,
(PID.TID 0000.0001) > rhoConst=1.0,
(PID.TID 0000.0001) > rigidLid=.FALSE.,
(PID.TID 0000.0001) > implicitFreeSurface=.TRUE.,
(PID.TID 0000.0001) > exactConserv=.TRUE.,
(PID.TID 0000.0001) > select_rStar=2,
(PID.TID 0000.0001) > nonlinFreeSurf=4,
(PID.TID 0000.0001) > hFacInf=0.2,
(PID.TID 0000.0001) > hFacSup=2.0,
(PID.TID 0000.0001) > hFacMin=1.0,
(PID.TID 0000.0001) > uniformLin_PhiSurf=.FALSE.,
(PID.TID 0000.0001) > vectorInvariantMomentum=.TRUE.,
(PID.TID 0000.0001) > useAbsVorticity=.TRUE.,
(PID.TID 0000.0001) > selectVortScheme=3,
(PID.TID 0000.0001) > selectKEscheme=3,
(PID.TID 0000.0001) > addFrictionHeating=.TRUE.,
(PID.TID 0000.0001) >#tempAdvScheme=77,
(PID.TID 0000.0001) > saltAdvScheme=77,
(PID.TID 0000.0001) > staggerTimeStep=.TRUE.,
(PID.TID 0000.0001) > readBinaryPrec=64,
(PID.TID 0000.0001) > writeBinaryPrec=64,
(PID.TID 0000.0001) >#globalFiles=.TRUE.,
(PID.TID 0000.0001) >#useSingleCpuIO=.TRUE.,
(PID.TID 0000.0001) > /
(PID.TID 0000.0001) >
(PID.TID 0000.0001) ># Elliptic solver parameters
(PID.TID 0000.0001) > &PARM02
(PID.TID 0000.0001) > cg2dMaxIters=200,
(PID.TID 0000.0001) > cg2dTargetResWunit=1.E-17,
(PID.TID 0000.0001) > /
(PID.TID 0000.0001) >
(PID.TID 0000.0001) ># Time stepping parameters
(PID.TID 0000.0001) > &PARM03
(PID.TID 0000.0001) > nIter0=0,
(PID.TID 0000.0001) > nTimeSteps=40,
(PID.TID 0000.0001) >#endTime=311040000.,
(PID.TID 0000.0001) >#endTime=5184000.,
(PID.TID 0000.0001) > deltaT=360.,
(PID.TID 0000.0001) > abEps=0.1,
(PID.TID 0000.0001) > forcing_In_AB=.FALSE.,
(PID.TID 0000.0001) > cAdjFreq=0.,
(PID.TID 0000.0001) >#- long run (> 1.yr):
(PID.TID 0000.0001) > pChkptFreq=155520000.,
(PID.TID 0000.0001) > chkptFreq =31104000.,
(PID.TID 0000.0001) > dumpFreq  =31104000.,
(PID.TID 0000.0001) > monitorFreq=2592000.,
(PID.TID 0000.0001) >#- short run (~ months):
(PID.TID 0000.0001) >#chkptFreq = 864000.,
(PID.TID 0000.0001) >#pChkptFreq=2592000.,
(PID.TID 0000.0001) >#dumpFreq  = 432000.,
(PID.TID 0000.0001) >#monitorFreq= 43200.,
(PID.TID 0000.0001) >#- short test:
(PID.TID 0000.0001) >#dumpFreq   =1.,
(PID.TID 0000.0001) > monitorFreq=1.,
(PID.TID 0000.0001) > /
(PID.TID 0000.0001) >
(PID.TID 0000.0001) ># Gridding parameters
(PID.TID 0000.0001) > &PARM04
(PID.TID 0000.0001) > usingCurvilinearGrid=.TRUE.,
(PID.TID 0000.0001) > horizGridFile='dxC1_dXYa',
(PID.TID 0000.0001) > radius_fromHorizGrid=6370.E3,
(PID.TID 0000.0001) >#delR=25*40.E2,
(PID.TID 0000.0001) > delR= 1500., 2122., 3000., 4242., 6000., 7800., 9100., 9400., 9280., 8400.,
(PID.TID 0000.0001) >       6980., 5800., 4820., 4004., 3328., 2766., 2298., 1910., 1586., 1318.,
(PID.TID 0000.0001) >       1096.,  910.,  756.,  628.,  522.,  434.,
(PID.TID 0000.0001) > Ro_SeaLevel=1.E5,
(PID.TID 0000.0001) > /
(PID.TID 0000.0001) >
(PID.TID 0000.0001) ># Input datasets
(PID.TID 0000.0001) > &PARM05
(PID.TID 0000.0001) > hydrogThetaFile='ini_theta_26l.bin',
(PID.TID 0000.0001) > hydrogSaltFile ='ini_specQ_26l.bin',
(PID.TID 0000.0001) > /
(PID.TID 0000.0001) 
(PID.TID 0000.0001)  INI_PARMS ; starts to read PARM01
(PID.TID 0000.0001)  INI_PARMS ; read PARM01 : OK
(PID.TID 0000.0001)  INI_PARMS ; starts to read PARM02
(PID.TID 0000.0001)  INI_PARMS ; read PARM02 : OK
(PID.TID 0000.0001)  INI_PARMS ; starts to read PARM03
(PID.TID 0000.0001)  INI_PARMS ; read PARM03 : OK
(PID.TID 0000.0001)  INI_PARMS ; starts to read PARM04
(PID.TID 0000.0001)  INI_PARMS ; read PARM04 : OK
(PID.TID 0000.0001)  INI_PARMS ; starts to read PARM05
(PID.TID 0000.0001)  INI_PARMS ; read PARM05 : OK
(PID.TID 0000.0001)  INI_PARMS: finished reading file "data"
(PID.TID 0000.0001)  PACKAGES_BOOT: opening data.pkg
(PID.TID 0000.0001)  OPEN_COPY_DATA_FILE: opening file data.pkg
(PID.TID 0000.0001) // =======================================================
(PID.TID 0000.0001) // Parameter file "data.pkg"
(PID.TID 0000.0001) // =======================================================
(PID.TID 0000.0001) ># Packages
(PID.TID 0000.0001) > &PACKAGES
(PID.TID 0000.0001) > useSHAP_FILT=.TRUE.,
(PID.TID 0000.0001) > useDiagnostics=.TRUE.,
(PID.TID 0000.0001) > useAtm_Phys=.TRUE.,
(PID.TID 0000.0001) >#useMNC = .TRUE.,
(PID.TID 0000.0001) > /
(PID.TID 0000.0001) 
(PID.TID 0000.0001)  PACKAGES_BOOT: finished reading data.pkg
(PID.TID 0000.0001)  SHAP_FILT_READPARMS: opening data.shap
(PID.TID 0000.0001)  OPEN_COPY_DATA_FILE: opening file data.shap
(PID.TID 0000.0001) // =======================================================
(PID.TID 0000.0001) // Parameter file "data.shap"
(PID.TID 0000.0001) // =======================================================
(PID.TID 0000.0001) ># Shapiro Filter parameters
(PID.TID 0000.0001) > &SHAP_PARM01
(PID.TID 0000.0001) > shap_filt_uvStar=.FALSE.,
(PID.TID 0000.0001) > shap_filt_TrStagg=.TRUE.,
(PID.TID 0000.0001) > Shap_funct=2,
(PID.TID 0000.0001) > nShapT=4,
(PID.TID 0000.0001) > nShapS=0,
(PID.TID 0000.0001) > nShapUV=4,
(PID.TID 0000.0001) > nShapTrPhys=1,
(PID.TID 0000.0001) > nShapUVPhys=0,
(PID.TID 0000.0001) > Shap_TrLength=140000.,
(PID.TID 0000.0001) >#Shap_TrLength=115000.,
(PID.TID 0000.0001) >#Shap_uvLength=110000.,
(PID.TID 0000.0001) >#Shap_Trtau=5400.,
(PID.TID 0000.0001) >#Shap_uvtau=5400.,
(PID.TID 0000.0001) > Shap_Trtau=1800.,
(PID.TID 0000.0001) > Shap_uvtau= 900.,
(PID.TID 0000.0001) > /
(PID.TID 0000.0001) >
(PID.TID 0000.0001) 
(PID.TID 0000.0001)  SHAP_FILT_READPARMS: finished reading data.shap
(PID.TID 0000.0001) Shap_funct =   /* select Shapiro filter function */
(PID.TID 0000.0001)                       2
(PID.TID 0000.0001)     ;
(PID.TID 0000.0001) nShapT =   /* power of Shapiro filter for Temperat */
(PID.TID 0000.0001)                       4
(PID.TID 0000.0001)     ;
(PID.TID 0000.0001) nShapS =   /* power of Shapiro filter for Salinity */
(PID.TID 0000.0001)                       0
(PID.TID 0000.0001)     ;
(PID.TID 0000.0001) nShapUV =   /* power of Shapiro filter for momentum */
(PID.TID 0000.0001)                       4
(PID.TID 0000.0001)     ;
(PID.TID 0000.0001) shap_filt_uvStar = /* apply filter before Press. Solver */
(PID.TID 0000.0001)                   F
(PID.TID 0000.0001)     ;
(PID.TID 0000.0001) shap_filt_TrStagg = /* filter T,S before calc PhiHyd (staggerTimeStep) */
(PID.TID 0000.0001)                   T
(PID.TID 0000.0001)     ;
(PID.TID 0000.0001) Shap_alwaysExchUV = /* always exch(U,V)    nShapUV times*/
(PID.TID 0000.0001)                   F
(PID.TID 0000.0001)     ;
(PID.TID 0000.0001) Shap_alwaysExchTr = /* always exch(Tracer) nShapTr times*/
(PID.TID 0000.0001)                   F
(PID.TID 0000.0001)     ;
(PID.TID 0000.0001) nShapTrPhys =   /* power of physical-space filter (Tracer) */
(PID.TID 0000.0001)                       1
(PID.TID 0000.0001)     ;
(PID.TID 0000.0001) nShapUVPhys =   /* power of physical-space filter (Momentum) */
(PID.TID 0000.0001)                       0
(PID.TID 0000.0001)     ;
(PID.TID 0000.0001) Shap_Trtau =   /* time scale of Shapiro filter (Tracer) */
(PID.TID 0000.0001)                 1.800000000000000E+03
(PID.TID 0000.0001)     ;
(PID.TID 0000.0001) Shap_TrLength =   /* Length scale of Shapiro filter (Tracer) */
(PID.TID 0000.0001)                 1.400000000000000E+05
(PID.TID 0000.0001)     ;
(PID.TID 0000.0001) Shap_uvtau =   /* time scale of Shapiro filter (Momentum) */
(PID.TID 0000.0001)                 9.000000000000000E+02
(PID.TID 0000.0001)     ;
(PID.TID 0000.0001) Shap_uvLength =   /* Length scale of Shapiro filter (Momentum) */
(PID.TID 0000.0001)                 0.000000000000000E+00
(PID.TID 0000.0001)     ;
(PID.TID 0000.0001) Shap_noSlip =  /* No-slip parameter (0=Free-slip ; 1=No-slip)*/
(PID.TID 0000.0001)                 0.000000000000000E+00
(PID.TID 0000.0001)     ;
(PID.TID 0000.0001) Shap_diagFreq =   /* Frequency^-1 for diagnostic output (s)*/
(PID.TID 0000.0001)                 0.000000000000000E+00
(PID.TID 0000.0001)     ;
(PID.TID 0000.0001) ATM_PHYS_READPARMS: opening data.atm_phys
(PID.TID 0000.0001)  OPEN_COPY_DATA_FILE: opening file data.atm_phys
(PID.TID 0000.0001) // =======================================================
(PID.TID 0000.0001) // Parameter file "data.atm_phys"
(PID.TID 0000.0001) // =======================================================
(PID.TID 0000.0001) >#
(PID.TID 0000.0001) > &ATM_PHYS_PARM01
(PID.TID 0000.0001) >#atmPhys_addTendT=.FALSE.,
(PID.TID 0000.0001) >#atmPhys_addTendS=.FALSE.,
(PID.TID 0000.0001) >#atmPhys_addTendU=.FALSE.,
(PID.TID 0000.0001) >#atmPhys_addTendV=.FALSE.,
(PID.TID 0000.0001) > atmPhys_tauDampUV = 86400.,
(PID.TID 0000.0001) > atmPhys_dampUVfac = 20*0., 0.125, 0.25, 0.5, 1., 2., 4.,
(PID.TID 0000.0001) >#- initial SST file:
(PID.TID 0000.0001) > atmPhys_SSTFile='SST_APE_1.bin',
(PID.TID 0000.0001) >#- Q-flux file:
(PID.TID 0000.0001) >#atmPhys_QflxFile='Qflux_w90.bin',
(PID.TID 0000.0001) >#- update SST (default = False = keep the same SST):
(PID.TID 0000.0001) >#atmPhys_stepSST=.TRUE.,
(PID.TID 0000.0001) > /
(PID.TID 0000.0001) 
(PID.TID 0000.0001) ATM_PHYS_READPARMS: finished reading data.atm_phys
(PID.TID 0000.0001)  DIAGNOSTICS_READPARMS: opening data.diagnostics
(PID.TID 0000.0001)  OPEN_COPY_DATA_FILE: opening file data.diagnostics
(PID.TID 0000.0001) // =======================================================
(PID.TID 0000.0001) // Parameter file "data.diagnostics"
(PID.TID 0000.0001) // =======================================================
(PID.TID 0000.0001) ># Diagnostic Package Choices
(PID.TID 0000.0001) >#--------------------
(PID.TID 0000.0001) >#  dumpAtLast (logical): always write output at the end of simulation (default=F)
(PID.TID 0000.0001) >#  diag_mnc   (logical): write to NetCDF files (default=useMNC)
(PID.TID 0000.0001) >#--for each output-stream:
(PID.TID 0000.0001) >#  fileName(n) : prefix of the output file name (max 80c long) for outp.stream n
(PID.TID 0000.0001) >#  frequency(n):< 0 : write snap-shot output every |frequency| seconds
(PID.TID 0000.0001) >#               > 0 : write time-average output every frequency seconds
(PID.TID 0000.0001) >#  timePhase(n)     : write at time = timePhase + multiple of |frequency|
(PID.TID 0000.0001) >#    averagingFreq  : frequency (in s) for periodic averaging interval
(PID.TID 0000.0001) >#    averagingPhase : phase     (in s) for periodic averaging interval
(PID.TID 0000.0001) >#    repeatCycle    : number of averaging intervals in 1 cycle
(PID.TID 0000.0001) >#  levels(:,n) : list of levels to write to file (Notes: declared as REAL)
(PID.TID 0000.0001) >#                when this entry is missing, select all common levels of this list
(PID.TID 0000.0001) >#  fields(:,n) : list of selected diagnostics fields (8.c) in outp.stream n
(PID.TID 0000.0001) >#                (see "available_diagnostics.log" file for the full list of diags)
(PID.TID 0000.0001) >#  missing_value(n) : missing value for real-type fields in output file "n"
(PID.TID 0000.0001) >#  fileFlags(n)     : specific code (8c string) for output file "n"
(PID.TID 0000.0001) >#--------------------
(PID.TID 0000.0001) > &DIAGNOSTICS_LIST
(PID.TID 0000.0001) ># diag_mnc     = .FALSE.,
(PID.TID 0000.0001) >#--
(PID.TID 0000.0001) >  fields(1:15,1) = 'ETAN    ','ETANSQ  ','DETADT2 ','AtPhCnvP','AtPhLscP',
(PID.TID 0000.0001) >                   'AtPhSens','AtPhEvap','AtPhTauX','AtPhTauY',
(PID.TID 0000.0001) >                   'AtPh_SST','AtPhInSR','AtPhOLR ',
(PID.TID 0000.0001) >                   'AtPhNSSR','AtPhDSLR','AtPhUSLR',
(PID.TID 0000.0001) >   fileName(1) = 'surfDiag',
(PID.TID 0000.0001) ># fileFlags(1) = 'D       ',
(PID.TID 0000.0001) ># frequency(1) = 31104000.,
(PID.TID 0000.0001) >  frequency(1) = 432000.,
(PID.TID 0000.0001) >  fields(1:14,2) = 'UVEL    ','VVEL    ','WVEL    ','THETA   ','SALT    ',
(PID.TID 0000.0001) >                   'UVELSQ  ','VVELSQ  ','WVELSQ  ','THETASQ ','SALTSQ  ',
(PID.TID 0000.0001) >                   'UVELMASS','VVELMASS','UV_VEL_C','RELHUM  ',
(PID.TID 0000.0001) >#                  'AtPhdTdt','AtPhdQdt','AtPhdUdt','AtPhdVdt',
(PID.TID 0000.0001) >#                  'AtPhdtTg','AtPhdtQg','AtPhDifT','AtPhDifM',
(PID.TID 0000.0001) >#                  'SHAP_dU ','MoistCor',
(PID.TID 0000.0001) >   fileName(2) = 'dynDiag',
(PID.TID 0000.0001) ># frequency(2) = 31104000.,
(PID.TID 0000.0001) >  frequency(2) = 432000.,
(PID.TID 0000.0001) > /
(PID.TID 0000.0001) >
(PID.TID 0000.0001) >#--------------------
(PID.TID 0000.0001) ># Parameter for Diagnostics of per level statistics:
(PID.TID 0000.0001) >#--------------------
(PID.TID 0000.0001) >#  diagSt_mnc (logical): write stat-diags to NetCDF files (default=diag_mnc)
(PID.TID 0000.0001) >#  diagSt_regMaskFile : file containing the region-mask to read-in
(PID.TID 0000.0001) >#  nSetRegMskFile   : number of region-mask sets within the region-mask file
(PID.TID 0000.0001) >#  set_regMask(i)   : region-mask set-index that identifies the region "i"
(PID.TID 0000.0001) >#  val_regMask(i)   : region "i" identifier value in the region mask
(PID.TID 0000.0001) >#--for each output-stream:
(PID.TID 0000.0001) >#  stat_fName(n) : prefix of the output file name (max 80c long) for outp.stream n
(PID.TID 0000.0001) >#  stat_freq(n):< 0 : write snap-shot output every |stat_freq| seconds
(PID.TID 0000.0001) >#               > 0 : write time-average output every stat_freq seconds
(PID.TID 0000.0001) >#  stat_phase(n)    : write at time = stat_phase + multiple of |stat_freq|
(PID.TID 0000.0001) >#  stat_region(:,n) : list of "regions" (default: 1 region only=global)
(PID.TID 0000.0001) >#  stat_fields(:,n) : list of selected diagnostics fields (8.c) in outp.stream n
(PID.TID 0000.0001) >#                (see "available_diagnostics.log" file for the full list of diags)
(PID.TID 0000.0001) >#--------------------
(PID.TID 0000.0001) > &DIAG_STATIS_PARMS
(PID.TID 0000.0001) > stat_fields(1:11,1) = 'ETAN    ','THETA   ','SALT    ','RELHUM  ',
(PID.TID 0000.0001) >                       'UE_VEL_C','VN_VEL_C','WVEL    ',
(PID.TID 0000.0001) >                       'AtPhdTdt','AtPhdQdt','AtPhdUdt','AtPhdVdt',
(PID.TID 0000.0001) >  stat_fName(1) = 'dynStDiag',
(PID.TID 0000.0001) >#  stat_freq(1) = 864000.,
(PID.TID 0000.0001) >   stat_freq(1) = 43200.,
(PID.TID 0000.0001) >  stat_phase(1) = 0.,
(PID.TID 0000.0001) > stat_fields(1:7,2)  = 'AtPhDifT','AtPhDifM','AtPhDisH',
(PID.TID 0000.0001) >                       'AtPhdtTg','AtPhdtQg','SHAP_dKE','MoistCor',
(PID.TID 0000.0001) >  stat_fName(2) = 'diffStDiag',
(PID.TID 0000.0001) >#  stat_freq(2) = 864000.,
(PID.TID 0000.0001) >   stat_freq(2) = 43200.,
(PID.TID 0000.0001) ># stat_phase(2) = 0.,
(PID.TID 0000.0001) > stat_fields(1:12,3) = 'AtPhSens','AtPhEvap','AtPhTauX','AtPhTauY',
(PID.TID 0000.0001) >                       'AtPhCnvP','AtPhLscP',
(PID.TID 0000.0001) >                       'AtPh_SST','AtPhInSR','AtPhOLR ',
(PID.TID 0000.0001) >                       'AtPhNSSR','AtPhDSLR','AtPhUSLR',
(PID.TID 0000.0001) >  stat_fName(3) = 'flxStDiag',
(PID.TID 0000.0001) >#  stat_freq(3) = 864000.,
(PID.TID 0000.0001) >   stat_freq(3) = 43200.,
(PID.TID 0000.0001) >  stat_phase(3) = 0.,
(PID.TID 0000.0001) > /
(PID.TID 0000.0001) >
(PID.TID 0000.0001) 
(PID.TID 0000.0001) S/R DIAGNOSTICS_READPARMS, read namelist "diagnostics_list": start
(PID.TID 0000.0001) S/R DIAGNOSTICS_READPARMS, read namelist "diagnostics_list": OK
(PID.TID 0000.0001) S/R DIAGNOSTICS_READPARMS, read namelist "DIAG_STATIS_PARMS": start
(PID.TID 0000.0001) S/R DIAGNOSTICS_READPARMS, read namelist "DIAG_STATIS_PARMS": OK
(PID.TID 0000.0001)  DIAGNOSTICS_READPARMS: global parameter summary:
(PID.TID 0000.0001)  dumpAtLast = /* always write time-ave diags at the end */
(PID.TID 0000.0001)                   F
(PID.TID 0000.0001)     ;
(PID.TID 0000.0001)  diag_mnc =   /* write NetCDF output files */
(PID.TID 0000.0001)                   F
(PID.TID 0000.0001)     ;
(PID.TID 0000.0001)  useMissingValue = /* put MissingValue where mask = 0 */
(PID.TID 0000.0001)                   F
(PID.TID 0000.0001)     ;
(PID.TID 0000.0001)  diagCG_maxIters = /* max number of iters in diag_cg2d */
(PID.TID 0000.0001)                     200
(PID.TID 0000.0001)     ;
(PID.TID 0000.0001)  diagCG_resTarget = /* residual target for diag_cg2d */
(PID.TID 0000.0001)                 1.000000000000000E-07
(PID.TID 0000.0001)     ;
(PID.TID 0000.0001) -----------------------------------------------------
(PID.TID 0000.0001)  DIAGNOSTICS_READPARMS: active diagnostics summary:
(PID.TID 0000.0001) -----------------------------------------------------
(PID.TID 0000.0001) Creating Output Stream: surfDiag
(PID.TID 0000.0001) Output Frequency:     432000.000000 ; Phase:           0.000000
(PID.TID 0000.0001)  Averaging Freq.:     432000.000000 , Phase:           0.000000 , Cycle:   1
(PID.TID 0000.0001)  missing value: -9.990000000000E+02
(PID.TID 0000.0001)  Levels:    will be set later
(PID.TID 0000.0001)  Fields:    ETAN     ETANSQ   DETADT2  AtPhCnvP AtPhLscP AtPhSens AtPhEvap AtPhTauX AtPhTauY AtPh_SST
(PID.TID 0000.0001)  Fields:    AtPhInSR AtPhOLR  AtPhNSSR AtPhDSLR AtPhUSLR
(PID.TID 0000.0001) Creating Output Stream: dynDiag
(PID.TID 0000.0001) Output Frequency:     432000.000000 ; Phase:           0.000000
(PID.TID 0000.0001)  Averaging Freq.:     432000.000000 , Phase:           0.000000 , Cycle:   1
(PID.TID 0000.0001)  missing value: -9.990000000000E+02
(PID.TID 0000.0001)  Levels:    will be set later
(PID.TID 0000.0001)  Fields:    UVEL     VVEL     WVEL     THETA    SALT     UVELSQ   VVELSQ   WVELSQ   THETASQ  SALTSQ
(PID.TID 0000.0001)  Fields:    UVELMASS VVELMASS UV_VEL_C RELHUM
(PID.TID 0000.0001) -----------------------------------------------------
(PID.TID 0000.0001)  DIAGNOSTICS_READPARMS: statistics diags. summary:
(PID.TID 0000.0001) Creating Stats. Output Stream: dynStDiag
(PID.TID 0000.0001) Output Frequency:      43200.000000 ; Phase:           0.000000
(PID.TID 0000.0001)  Regions:   0
(PID.TID 0000.0001)  Fields:    ETAN     THETA    SALT     RELHUM   UE_VEL_C VN_VEL_C WVEL     AtPhdTdt AtPhdQdt AtPhdUdt
(PID.TID 0000.0001)  Fields:    AtPhdVdt
(PID.TID 0000.0001) Creating Stats. Output Stream: diffStDiag
(PID.TID 0000.0001) Output Frequency:      43200.000000 ; Phase:           0.000000
(PID.TID 0000.0001)  Regions:   0
(PID.TID 0000.0001)  Fields:    AtPhDifT AtPhDifM AtPhDisH AtPhdtTg AtPhdtQg SHAP_dKE MoistCor
(PID.TID 0000.0001) Creating Stats. Output Stream: flxStDiag
(PID.TID 0000.0001) Output Frequency:      43200.000000 ; Phase:           0.000000
(PID.TID 0000.0001)  Regions:   0
(PID.TID 0000.0001)  Fields:    AtPhSens AtPhEvap AtPhTauX AtPhTauY AtPhCnvP AtPhLscP AtPh_SST AtPhInSR AtPhOLR  AtPhNSSR
(PID.TID 0000.0001)  Fields:    AtPhDSLR AtPhUSLR
(PID.TID 0000.0001) -----------------------------------------------------
(PID.TID 0000.0001) 
(PID.TID 0000.0001)  CPL_READPARMS: opening data.cpl
(PID.TID 0000.0001)  OPEN_COPY_DATA_FILE: opening file data.cpl
(PID.TID 0000.0001) // =======================================================
(PID.TID 0000.0001) // Parameter file "data.cpl"
(PID.TID 0000.0001) // =======================================================
(PID.TID 0000.0001) ># Coupling package parameters, ATM component:
(PID.TID 0000.0001) >#     cpl_oldPickup  :: restart from an old pickup (= until ckpt 59h)
(PID.TID 0000.0001) >#     useImportMxlD  :: True => use Imported Mix.Layer Detph from coupler
(PID.TID 0000.0001) >#     useImportSST   :: True => use the Imported SST from coupler
(PID.TID 0000.0001) >#     useImportSSS   :: True => use the Imported SSS from coupler
(PID.TID 0000.0001) >#     useImportVsq   :: True => use the Imported Surf. velocity^2
(PID.TID 0000.0001) >#     cpl_atmSendFrq :: Frequency^-1 for sending data to coupler (s)
(PID.TID 0000.0001) >#     maxNumberPrint :: max number of printed Exp/Imp messages
(PID.TID 0000.0001) > &CPL_ATM_PARAM
(PID.TID 0000.0001) ># cpl_oldPickup=.TRUE.,
(PID.TID 0000.0001) >  useImportMxlD=.FALSE.,
(PID.TID 0000.0001) ># useImportSST =.FALSE.,
(PID.TID 0000.0001) >  useImportSSS =.FALSE.,
(PID.TID 0000.0001) >  useImportVsq =.FALSE.,
(PID.TID 0000.0001) ># useImportFlxCO2=.FALSE.,
(PID.TID 0000.0001) >  cpl_atmSendFrq=2880.,
(PID.TID 0000.0001) > /
(PID.TID 0000.0001) 
(PID.TID 0000.0001)  CPL_READPARMS: finished reading data.cpl
(PID.TID 0000.0001) 
(PID.TID 0000.0001) // ===================================
(PID.TID 0000.0001) // Coupling package parameters :
(PID.TID 0000.0001) // ===================================
(PID.TID 0000.0001) cpl_oldPickup = /* restart from old pickup on/off flag */
(PID.TID 0000.0001)                   F
(PID.TID 0000.0001)     ;
(PID.TID 0000.0001) useImportMxlD = /* use Imported MxL. Depth from Coupler flag */
(PID.TID 0000.0001)                   F
(PID.TID 0000.0001)     ;
(PID.TID 0000.0001) useImportSST = /* use Imported SST from Coupler on/off flag */
(PID.TID 0000.0001)                   T
(PID.TID 0000.0001)     ;
(PID.TID 0000.0001) useImportSSS = /* use Imported SSS from Coupler on/off flag */
(PID.TID 0000.0001)                   F
(PID.TID 0000.0001)     ;
(PID.TID 0000.0001) useImportVsq = /* use Imported surf.Vel^2 from Coupler flag */
(PID.TID 0000.0001)                   F
(PID.TID 0000.0001)     ;
(PID.TID 0000.0001) useImportFlxCO2 = /* use Imported air-sea CO2 flux from Coupler flag */
(PID.TID 0000.0001)                   F
(PID.TID 0000.0001)     ;
(PID.TID 0000.0001) cpl_atmSendFrq = /* Frequency^o-1 for sending data to Coupler (s) */
(PID.TID 0000.0001)                 2.880000000000000E+03
(PID.TID 0000.0001)     ;
(PID.TID 0000.0001) cplSendFrq_iter = /* send data to coupler every "cplSendFrq" iter */
(PID.TID 0000.0001)                       8
(PID.TID 0000.0001)     ;
(PID.TID 0000.0001) maxNumberPrint = /* max number of printed Exp/Imp messages */
(PID.TID 0000.0001)                     100
(PID.TID 0000.0001)     ;
(PID.TID 0000.0001) SET_PARMS: done
(PID.TID 0000.0001) Enter INI_VERTICAL_GRID: setInterFDr=    T ; setCenterDr=    F
(PID.TID 0000.0001) tile:   1 ; Read from file dxC1_dXYa.face001.bin
(PID.TID 0000.0001)   => xC yC dxF dyF rA xG yG dxV dyU rAz dxC dyC rAw rAs dxG dyG AngleCS AngleSN
(PID.TID 0000.0001) tile:   2 ; Read from file dxC1_dXYa.face002.bin
(PID.TID 0000.0001)   => xC yC dxF dyF rA xG yG dxV dyU rAz dxC dyC rAw rAs dxG dyG AngleCS AngleSN
(PID.TID 0000.0001) tile:   3 ; Read from file dxC1_dXYa.face003.bin
(PID.TID 0000.0001)   => xC yC dxF dyF rA xG yG dxV dyU rAz dxC dyC rAw rAs dxG dyG AngleCS AngleSN
(PID.TID 0000.0001) tile:   4 ; Read from file dxC1_dXYa.face004.bin
(PID.TID 0000.0001)   => xC yC dxF dyF rA xG yG dxV dyU rAz dxC dyC rAw rAs dxG dyG AngleCS AngleSN
(PID.TID 0000.0001) tile:   5 ; Read from file dxC1_dXYa.face005.bin
(PID.TID 0000.0001)   => xC yC dxF dyF rA xG yG dxV dyU rAz dxC dyC rAw rAs dxG dyG AngleCS AngleSN
(PID.TID 0000.0001) tile:   6 ; Read from file dxC1_dXYa.face006.bin
(PID.TID 0000.0001)   => xC yC dxF dyF rA xG yG dxV dyU rAz dxC dyC rAw rAs dxG dyG AngleCS AngleSN
(PID.TID 0000.0001) %MON XC_max                       =   1.7854351589505E+02
(PID.TID 0000.0001) %MON XC_min                       =  -1.7854351589505E+02
(PID.TID 0000.0001) %MON XC_mean                      =  -4.6999441375798E-15
(PID.TID 0000.0001) %MON XC_sd                        =   1.0355545336287E+02
(PID.TID 0000.0001) %MON XG_max                       =   1.8000000000000E+02
(PID.TID 0000.0001) %MON XG_min                       =  -1.7708797161002E+02
(PID.TID 0000.0001) %MON XG_mean                      =   1.8603515625000E+00
(PID.TID 0000.0001) %MON XG_sd                        =   1.0357130300504E+02
(PID.TID 0000.0001) %MON DXC_max                      =   3.2375185836900E+05
(PID.TID 0000.0001) %MON DXC_min                      =   1.1353730006923E+05
(PID.TID 0000.0001) %MON DXC_mean                     =   2.8606102525036E+05
(PID.TID 0000.0001) %MON DXC_sd                       =   3.4020997630307E+04
(PID.TID 0000.0001) %MON DXF_max                      =   3.2369947500827E+05
(PID.TID 0000.0001) %MON DXF_min                      =   1.2020820513318E+05
(PID.TID 0000.0001) %MON DXF_mean                     =   2.8605437324820E+05
(PID.TID 0000.0001) %MON DXF_sd                       =   3.4050524252539E+04
(PID.TID 0000.0001) %MON DXG_max                      =   3.2375195872773E+05
(PID.TID 0000.0001) %MON DXG_min                      =   1.0098378008791E+05
(PID.TID 0000.0001) %MON DXG_mean                     =   2.8603818508931E+05
(PID.TID 0000.0001) %MON DXG_sd                       =   3.4140406908005E+04
(PID.TID 0000.0001) %MON DXV_max                      =   3.2380418162750E+05
(PID.TID 0000.0001) %MON DXV_min                      =   8.0152299824136E+04
(PID.TID 0000.0001) %MON DXV_mean                     =   2.8603970633619E+05
(PID.TID 0000.0001) %MON DXV_sd                       =   3.4145142117723E+04
(PID.TID 0000.0001) %MON YC_max                       =   8.7940663871962E+01
(PID.TID 0000.0001) %MON YC_min                       =  -8.7940663871962E+01
(PID.TID 0000.0001) %MON YC_mean                      =   0.0000000000000E+00
(PID.TID 0000.0001) %MON YC_sd                        =   3.8676242969072E+01
(PID.TID 0000.0001) %MON YG_max                       =   9.0000000000000E+01
(PID.TID 0000.0001) %MON YG_min                       =  -9.0000000000000E+01
(PID.TID 0000.0001) %MON YG_mean                      =  -1.1842378929335E-15
(PID.TID 0000.0001) %MON YG_sd                        =   3.8676895860710E+01
(PID.TID 0000.0001) %MON DYC_max                      =   3.2375185836900E+05
(PID.TID 0000.0001) %MON DYC_min                      =   1.1353730006923E+05
(PID.TID 0000.0001) %MON DYC_mean                     =   2.8606102525036E+05
(PID.TID 0000.0001) %MON DYC_sd                       =   3.4020997630307E+04
(PID.TID 0000.0001) %MON DYF_max                      =   3.2369947500827E+05
(PID.TID 0000.0001) %MON DYF_min                      =   1.2020820513318E+05
(PID.TID 0000.0001) %MON DYF_mean                     =   2.8605437324820E+05
(PID.TID 0000.0001) %MON DYF_sd                       =   3.4050524252539E+04
(PID.TID 0000.0001) %MON DYG_max                      =   3.2375195872773E+05
(PID.TID 0000.0001) %MON DYG_min                      =   1.0098378008791E+05
(PID.TID 0000.0001) %MON DYG_mean                     =   2.8603818508931E+05
(PID.TID 0000.0001) %MON DYG_sd                       =   3.4140406908005E+04
(PID.TID 0000.0001) %MON DYU_max                      =   3.2380418162750E+05
(PID.TID 0000.0001) %MON DYU_min                      =   8.0152299824136E+04
(PID.TID 0000.0001) %MON DYU_mean                     =   2.8603970633619E+05
(PID.TID 0000.0001) %MON DYU_sd                       =   3.4145142117723E+04
(PID.TID 0000.0001) %MON RA_max                       =   1.0474757731659E+11
(PID.TID 0000.0001) %MON RA_min                       =   1.5497867056722E+10
(PID.TID 0000.0001) %MON RA_mean                      =   8.2985711332657E+10
(PID.TID 0000.0001) %MON RA_sd                        =   1.7448591913787E+10
(PID.TID 0000.0001) %MON RAW_max                      =   1.0481529828871E+11
(PID.TID 0000.0001) %MON RAW_min                      =   1.1465425741966E+10
(PID.TID 0000.0001) %MON RAW_mean                     =   8.2985711332657E+10
(PID.TID 0000.0001) %MON RAW_sd                       =   1.7503889570793E+10
(PID.TID 0000.0001) %MON RAS_max                      =   1.0481529828871E+11
(PID.TID 0000.0001) %MON RAS_min                      =   1.1465425741966E+10
(PID.TID 0000.0001) %MON RAS_mean                     =   8.2985711332657E+10
(PID.TID 0000.0001) %MON RAS_sd                       =   1.7503889570793E+10
(PID.TID 0000.0001) %MON RAZ_max                      =   1.0484349334619E+11
(PID.TID 0000.0001) %MON RAZ_min                      =   8.8317900612505E+09
(PID.TID 0000.0001) %MON RAZ_mean                     =   8.2992246709235E+10
(PID.TID 0000.0001) %MON RAZ_sd                       =   1.7482297311044E+10
(PID.TID 0000.0001) %MON AngleCS_max                  =   9.9999994756719E-01
(PID.TID 0000.0001) %MON AngleCS_min                  =  -9.9968286884824E-01
(PID.TID 0000.0001) %MON AngleCS_mean                 =   3.3078922539000E-01
(PID.TID 0000.0001) %MON AngleCS_sd                   =   6.2496278958502E-01
(PID.TID 0000.0001) %MON AngleSN_max                  =   9.9968286884824E-01
(PID.TID 0000.0001) %MON AngleSN_min                  =  -9.9999994756719E-01
(PID.TID 0000.0001) %MON AngleSN_mean                 =  -3.3078922539000E-01
(PID.TID 0000.0001) %MON AngleSN_sd                   =   6.2496278958502E-01
(PID.TID 0000.0001) 
(PID.TID 0000.0001) SET_REF_STATE: PhiRef/g [m] at level Center (integer)
(PID.TID 0000.0001)                      and at level Interface (half-int.) :
(PID.TID 0000.0001)  K=  0.5  ;  r=       100000.0  ;  phiRef/g=        0.000
(PID.TID 0000.0001)  K=  1.0  ;  r=        99250.0  ;  phiRef/g=       65.000
(PID.TID 0000.0001)  K=  1.5  ;  r=        98500.0  ;  phiRef/g=      144.206
(PID.TID 0000.0001)  K=  2.0  ;  r=        97439.0  ;  phiRef/g=      223.440
(PID.TID 0000.0001)  K=  2.5  ;  r=        96378.0  ;  phiRef/g=      337.302
(PID.TID 0000.0001)  K=  3.0  ;  r=        94878.0  ;  phiRef/g=      451.241
(PID.TID 0000.0001)  K=  3.5  ;  r=        93378.0  ;  phiRef/g=      616.151
(PID.TID 0000.0001)  K=  4.0  ;  r=        91257.0  ;  phiRef/g=      781.172
(PID.TID 0000.0001)  K=  4.5  ;  r=        89136.0  ;  phiRef/g=     1022.734
(PID.TID 0000.0001)  K=  5.0  ;  r=        86136.0  ;  phiRef/g=     1264.623
(PID.TID 0000.0001)  K=  5.5  ;  r=        83136.0  ;  phiRef/g=     1607.359
(PID.TID 0000.0001)  K=  6.0  ;  r=        79236.0  ;  phiRef/g=     1950.789
(PID.TID 0000.0001)  K=  6.5  ;  r=        75336.0  ;  phiRef/g=     2401.805
(PID.TID 0000.0001)  K=  7.0  ;  r=        70786.0  ;  phiRef/g=     2853.886
(PID.TID 0000.0001)  K=  7.5  ;  r=        66236.0  ;  phiRef/g=     3395.385
(PID.TID 0000.0001)  K=  8.0  ;  r=        61536.0  ;  phiRef/g=     3938.525
(PID.TID 0000.0001)  K=  8.5  ;  r=        56836.0  ;  phiRef/g=     4549.812
(PID.TID 0000.0001)  K=  9.0  ;  r=        52196.0  ;  phiRef/g=     5163.354
(PID.TID 0000.0001)  K=  9.5  ;  r=        47556.0  ;  phiRef/g=     5821.228
(PID.TID 0000.0001)  K= 10.0  ;  r=        43356.0  ;  phiRef/g=     6481.959
(PID.TID 0000.0001)  K= 10.5  ;  r=        39156.0  ;  phiRef/g=     7140.379
(PID.TID 0000.0001)  K= 11.0  ;  r=        35666.0  ;  phiRef/g=     7802.741
(PID.TID 0000.0001)  K= 11.5  ;  r=        32176.0  ;  phiRef/g=     8435.972
(PID.TID 0000.0001)  K= 12.0  ;  r=        29276.0  ;  phiRef/g=     9076.532
(PID.TID 0000.0001)  K= 12.5  ;  r=        26376.0  ;  phiRef/g=     9690.011
(PID.TID 0000.0001)  K= 13.0  ;  r=        23966.0  ;  phiRef/g=    10315.322
(PID.TID 0000.0001)  K= 13.5  ;  r=        21556.0  ;  phiRef/g=    10915.408
(PID.TID 0000.0001)  K= 14.0  ;  r=        19554.0  ;  phiRef/g=    11534.739
(PID.TID 0000.0001)  K= 14.5  ;  r=        17552.0  ;  phiRef/g=    12130.692
(PID.TID 0000.0001)  K= 15.0  ;  r=        15888.0  ;  phiRef/g=    12757.201
(PID.TID 0000.0001)  K= 15.5  ;  r=        14224.0  ;  phiRef/g=    13362.259
(PID.TID 0000.0001)  K= 16.0  ;  r=        12841.0  ;  phiRef/g=    14005.235
(PID.TID 0000.0001)  K= 16.5  ;  r=        11458.0  ;  phiRef/g=    14628.723
(PID.TID 0000.0001)  K= 17.0  ;  r=        10309.0  ;  phiRef/g=    15292.620
(PID.TID 0000.0001)  K= 17.5  ;  r=         9160.0  ;  phiRef/g=    15939.897
(PID.TID 0000.0001)  K= 18.0  ;  r=         8205.0  ;  phiRef/g=    16630.800
(PID.TID 0000.0001)  K= 18.5  ;  r=         7250.0  ;  phiRef/g=    17309.051
(PID.TID 0000.0001)  K= 19.0  ;  r=         6457.0  ;  phiRef/g=    18035.275
(PID.TID 0000.0001)  K= 19.5  ;  r=         5664.0  ;  phiRef/g=    18754.792
(PID.TID 0000.0001)  K= 20.0  ;  r=         5005.0  ;  phiRef/g=    19528.745
(PID.TID 0000.0001)  K= 20.5  ;  r=         4346.0  ;  phiRef/g=    20306.032
(PID.TID 0000.0001)  K= 21.0  ;  r=         3798.0  ;  phiRef/g=    21147.074
(PID.TID 0000.0001)  K= 21.5  ;  r=         3250.0  ;  phiRef/g=    22007.037
(PID.TID 0000.0001)  K= 22.0  ;  r=         2795.0  ;  phiRef/g=    22945.700
(PID.TID 0000.0001)  K= 22.5  ;  r=         2340.0  ;  phiRef/g=    23931.492
(PID.TID 0000.0001)  K= 23.0  ;  r=         1962.0  ;  phiRef/g=    25022.107
(PID.TID 0000.0001)  K= 23.5  ;  r=         1584.0  ;  phiRef/g=    26220.010
(PID.TID 0000.0001)  K= 24.0  ;  r=         1270.0  ;  phiRef/g=    27576.491
(PID.TID 0000.0001)  K= 24.5  ;  r=          956.0  ;  phiRef/g=    29198.536
(PID.TID 0000.0001)  K= 25.0  ;  r=          695.0  ;  phiRef/g=    31125.517
(PID.TID 0000.0001)  K= 25.5  ;  r=          434.0  ;  phiRef/g=    34025.939
(PID.TID 0000.0001)  K= 26.0  ;  r=          217.0  ;  phiRef/g=    38070.823
(PID.TID 0000.0001)  K= 26.5  ;  r=            0.0  ;  phiRef/g=    58574.329
(PID.TID 0000.0001) // =======================================================
(PID.TID 0000.0001) // Field Model R_low (ini_masks_etc)
(PID.TID 0000.0001) // CMIN =          1.000000000000000E+32
(PID.TID 0000.0001) // CMAX =         -1.000000000000000E+32
(PID.TID 0000.0001) // CINT =          0.000000000000000E+00
(PID.TID 0000.0001) // SYMBOLS (CMIN->CMAX): -abcdefghijklmnopqrstuvwxyz+
(PID.TID 0000.0001) //                  0.0: .
(PID.TID 0000.0001) // RANGE I (Lo:Hi:Step):(    -3:   196:     1)
(PID.TID 0000.0001) // RANGE J (Lo:Hi:Step):(    36:    -3:    -1)
(PID.TID 0000.0001) // RANGE K (Lo:Hi:Step):(   1:   1:   1)
(PID.TID 0000.0001) // =======================================================
(PID.TID 0000.0001) // =======================================================
(PID.TID 0000.0001) // END OF FIELD                                          =
(PID.TID 0000.0001) // =======================================================
(PID.TID 0000.0001) 
(PID.TID 0000.0001) // =======================================================
(PID.TID 0000.0001) // Field Model Ro_surf (ini_masks_etc)
(PID.TID 0000.0001) // CMIN =          1.000000000000000E+05
(PID.TID 0000.0001) // CMAX =          1.000000000000000E+05
(PID.TID 0000.0001) // CINT =          0.000000000000000E+00
(PID.TID 0000.0001) // SYMBOLS (CMIN->CMAX): -abcdefghijklmnopqrstuvwxyz+
(PID.TID 0000.0001) //                  0.0: .
(PID.TID 0000.0001) // RANGE I (Lo:Hi:Step):(    -3:   196:     1)
(PID.TID 0000.0001) // RANGE J (Lo:Hi:Step):(    36:    -3:    -1)
(PID.TID 0000.0001) // RANGE K (Lo:Hi:Step):(   1:   1:   1)
(PID.TID 0000.0001) // =======================================================
(PID.TID 0000.0001) // =======================================================
(PID.TID 0000.0001) // END OF FIELD                                          =
(PID.TID 0000.0001) // =======================================================
(PID.TID 0000.0001) 
(PID.TID 0000.0001) // =======================================================
(PID.TID 0000.0001) // Field hFacC at iteration          0
(PID.TID 0000.0001) // CMIN =          1.000000000000000E+00
(PID.TID 0000.0001) // CMAX =          1.000000000000000E+00
(PID.TID 0000.0001) // CINT =          0.000000000000000E+00
(PID.TID 0000.0001) // SYMBOLS (CMIN->CMAX): -abcdefghijklmnopqrstuvwxyz+
(PID.TID 0000.0001) //                  0.0: .
(PID.TID 0000.0001) // RANGE I (Lo:Hi:Step):(    -3:   196:     1)
(PID.TID 0000.0001) // RANGE J (Lo:Hi:Step):(    36:    -3:    -1)
(PID.TID 0000.0001) // RANGE K (Lo:Hi:Step):(   1:   1:   1)
(PID.TID 0000.0001) // =======================================================
(PID.TID 0000.0001) // =======================================================
(PID.TID 0000.0001) // END OF FIELD                                          =
(PID.TID 0000.0001) // =======================================================
(PID.TID 0000.0001) 
(PID.TID 0000.0001) // =======================================================
(PID.TID 0000.0001) // Field hFacW at iteration          0
(PID.TID 0000.0001) // CMIN =          1.000000000000000E+00
(PID.TID 0000.0001) // CMAX =          1.000000000000000E+00
(PID.TID 0000.0001) // CINT =          0.000000000000000E+00
(PID.TID 0000.0001) // SYMBOLS (CMIN->CMAX): -abcdefghijklmnopqrstuvwxyz+
(PID.TID 0000.0001) //                  0.0: .
(PID.TID 0000.0001) // RANGE I (Lo:Hi:Step):(    -3:   196:     1)
(PID.TID 0000.0001) // RANGE J (Lo:Hi:Step):(    36:    -3:    -1)
(PID.TID 0000.0001) // RANGE K (Lo:Hi:Step):(   1:   1:   1)
(PID.TID 0000.0001) // =======================================================
(PID.TID 0000.0001) // =======================================================
(PID.TID 0000.0001) // END OF FIELD                                          =
(PID.TID 0000.0001) // =======================================================
(PID.TID 0000.0001) 
(PID.TID 0000.0001) // =======================================================
(PID.TID 0000.0001) // Field hFacS at iteration          0
(PID.TID 0000.0001) // CMIN =          1.000000000000000E+00
(PID.TID 0000.0001) // CMAX =          1.000000000000000E+00
(PID.TID 0000.0001) // CINT =          0.000000000000000E+00
(PID.TID 0000.0001) // SYMBOLS (CMIN->CMAX): -abcdefghijklmnopqrstuvwxyz+
(PID.TID 0000.0001) //                  0.0: .
(PID.TID 0000.0001) // RANGE I (Lo:Hi:Step):(    -3:   196:     1)
(PID.TID 0000.0001) // RANGE J (Lo:Hi:Step):(    36:    -3:    -1)
(PID.TID 0000.0001) // RANGE K (Lo:Hi:Step):(   1:   1:   1)
(PID.TID 0000.0001) // =======================================================
(PID.TID 0000.0001) // =======================================================
(PID.TID 0000.0001) // END OF FIELD                                          =
(PID.TID 0000.0001) // =======================================================
(PID.TID 0000.0001) 
(PID.TID 0000.0001) GAD_INIT_FIXED: GAD_OlMinSize=  2  0  2
(PID.TID 0000.0001) 
(PID.TID 0000.0001) // ===================================
(PID.TID 0000.0001) // GAD parameters :
(PID.TID 0000.0001) // ===================================
(PID.TID 0000.0001) tempAdvScheme =   /* Temp. Horiz.Advection scheme selector */
(PID.TID 0000.0001)                       2
(PID.TID 0000.0001)     ;
(PID.TID 0000.0001) tempVertAdvScheme =   /* Temp. Vert. Advection scheme selector */
(PID.TID 0000.0001)                       2
(PID.TID 0000.0001)     ;
(PID.TID 0000.0001) tempMultiDimAdvec =   /* use Muti-Dim Advec method for Temp */
(PID.TID 0000.0001)                   F
(PID.TID 0000.0001)     ;
(PID.TID 0000.0001) tempSOM_Advection = /* use 2nd Order Moment Advection for Temp */
(PID.TID 0000.0001)                   F
(PID.TID 0000.0001)     ;
(PID.TID 0000.0001) AdamsBashforthGt = /* apply Adams-Bashforth extrapolation on Gt */
(PID.TID 0000.0001)                   T
(PID.TID 0000.0001)     ;
(PID.TID 0000.0001) AdamsBashforth_T = /* apply Adams-Bashforth extrapolation on Temp */
(PID.TID 0000.0001)                   F
(PID.TID 0000.0001)     ;
(PID.TID 0000.0001) saltAdvScheme =   /* Salt. Horiz.advection scheme selector */
(PID.TID 0000.0001)                      77
(PID.TID 0000.0001)     ;
(PID.TID 0000.0001) saltVertAdvScheme =   /* Salt. Vert. Advection scheme selector */
(PID.TID 0000.0001)                      77
(PID.TID 0000.0001)     ;
(PID.TID 0000.0001) saltMultiDimAdvec =   /* use Muti-Dim Advec method for Salt */
(PID.TID 0000.0001)                   T
(PID.TID 0000.0001)     ;
(PID.TID 0000.0001) saltSOM_Advection = /* use 2nd Order Moment Advection for Salt */
(PID.TID 0000.0001)                   F
(PID.TID 0000.0001)     ;
(PID.TID 0000.0001) AdamsBashforthGs = /* apply Adams-Bashforth extrapolation on Gs */
(PID.TID 0000.0001)                   F
(PID.TID 0000.0001)     ;
(PID.TID 0000.0001) AdamsBashforth_S = /* apply Adams-Bashforth extrapolation on Salt */
(PID.TID 0000.0001)                   F
(PID.TID 0000.0001)     ;
(PID.TID 0000.0001) // ===================================
(PID.TID 0000.0001) ATM_PHYS_INIT_FIXED: opening data.atm_gray
(PID.TID 0000.0001)  OPEN_COPY_DATA_FILE: opening file data.atm_gray
(PID.TID 0000.0001) // =======================================================
(PID.TID 0000.0001) // Parameter file "data.atm_gray"
(PID.TID 0000.0001) // =======================================================
(PID.TID 0000.0001) >
(PID.TID 0000.0001) > &atmosphere_nml
(PID.TID 0000.0001) >    turb = .TRUE.,
(PID.TID 0000.0001) >    ldry_convection = .false.,
(PID.TID 0000.0001) >    lwet_convection = .TRUE.,
(PID.TID 0000.0001) >    do_virtual = .false.,
(PID.TID 0000.0001) >    two_stream = .true.,
(PID.TID 0000.0001) >    mixed_layer_bc = .false.,
(PID.TID 0000.0001) >    roughness_heat = 0.05,
(PID.TID 0000.0001) >    roughness_moist = 0.05,
(PID.TID 0000.0001) >    roughness_mom = 0.05,
(PID.TID 0000.0001) > /
(PID.TID 0000.0001) >
(PID.TID 0000.0001) > &radiation_nml
(PID.TID 0000.0001) >  solar_constant= 1365.,
(PID.TID 0000.0001) >  del_sol=1.,
(PID.TID 0000.0001) ># ir_tau_eq=
(PID.TID 0000.0001) ># ir_tau_pole=
(PID.TID 0000.0001) >  atm_abs= 0.22,
(PID.TID 0000.0001) ># value that Ruth is using as default:
(PID.TID 0000.0001) ># atm_abs= 0.2486,
(PID.TID 0000.0001) ># sw_diff=
(PID.TID 0000.0001) ># linear_tau=
(PID.TID 0000.0001) ># del_sw=
(PID.TID 0000.0001) >  albedo_value=0.38,
(PID.TID 0000.0001) ># window=
(PID.TID 0000.0001) ># wv_exponent=
(PID.TID 0000.0001) ># solar_exponent=
(PID.TID 0000.0001) >  wv_exponent=0.,
(PID.TID 0000.0001) > /
(PID.TID 0000.0001) >
(PID.TID 0000.0001) > &lscale_cond_nml
(PID.TID 0000.0001) ># hc =
(PID.TID 0000.0001) ># do_evap=
(PID.TID 0000.0001) > /
(PID.TID 0000.0001) >
(PID.TID 0000.0001) > &dargan_bettsmiller_nml
(PID.TID 0000.0001) >#  tau_bm =,
(PID.TID 0000.0001) >#  rhbm =,
(PID.TID 0000.0001) >#  do_shallower=,
(PID.TID 0000.0001) >#  do_changeqref=,
(PID.TID 0000.0001) >#  do_envsat=,
(PID.TID 0000.0001) >#  do_taucape=,
(PID.TID 0000.0001) >#  capetaubm=,
(PID.TID 0000.0001) >#  tau_min =,
(PID.TID 0000.0001) >#  do_virtual=,
(PID.TID 0000.0001) >#  do_bm_shift=,
(PID.TID 0000.0001) > /
(PID.TID 0000.0001) >
(PID.TID 0000.0001) > &surface_flux_nml
(PID.TID 0000.0001) > /
(PID.TID 0000.0001) >
(PID.TID 0000.0001) > &vert_turb_driver_nml
(PID.TID 0000.0001) >#  do_shallow_conv, do_mellor_yamada,
(PID.TID 0000.0001) >#  gust_scheme, constant_gust, use_tau,
(PID.TID 0000.0001) >#  do_molecular_diffusion
(PID.TID 0000.0001) >  do_mellor_yamada=.FALSE.,
(PID.TID 0000.0001) > /
(PID.TID 0000.0001) >
(PID.TID 0000.0001) > &diffusivity_nml
(PID.TID 0000.0001) >#  fixed_depth, depth_0, frac_inner,
(PID.TID 0000.0001) >#  rich_crit_pbl, entr_ratio, parcel_buoy,
(PID.TID 0000.0001) >#  znom, free_atm_diff, free_atm_skyhi_diff,
(PID.TID 0000.0001) >#  pbl_mcm, rich_crit_diff, mix_len, rich_prandtl,
(PID.TID 0000.0001) >#  background_m, background_t, ampns, ampns_max,
(PID.TID 0000.0001) >#  do_virtual_non_mcm
(PID.TID 0000.0001) > /
(PID.TID 0000.0001) >
(PID.TID 0000.0001) > &monin_obukhov_nml
(PID.TID 0000.0001) > /
(PID.TID 0000.0001) >
(PID.TID 0000.0001) > &my25_turb_nml
(PID.TID 0000.0001) > /
(PID.TID 0000.0001) >
(PID.TID 0000.0001) > &shallow_conv_nml
(PID.TID 0000.0001) > /
(PID.TID 0000.0001) >
(PID.TID 0000.0001) > &mixed_layer_nml
(PID.TID 0000.0001) ># evaporation, qflux_amp, depth, qflux_width
(PID.TID 0000.0001) >  depth=5000.,
(PID.TID 0000.0001) > /
(PID.TID 0000.0001) 
(PID.TID 0000.0001) ATM_PHYS_INIT_FIXED: finished reading data.atm_gray
(PID.TID 0000.0001) MIXED_LAYER_INIT: opening data.atm_gray
(PID.TID 0000.0001)  OPEN_COPY_DATA_FILE: opening file data.atm_gray
(PID.TID 0000.0001) // =======================================================
(PID.TID 0000.0001) // Parameter file "data.atm_gray"
(PID.TID 0000.0001) // =======================================================
(PID.TID 0000.0001) >
(PID.TID 0000.0001) > &atmosphere_nml
(PID.TID 0000.0001) >    turb = .TRUE.,
(PID.TID 0000.0001) >    ldry_convection = .false.,
(PID.TID 0000.0001) >    lwet_convection = .TRUE.,
(PID.TID 0000.0001) >    do_virtual = .false.,
(PID.TID 0000.0001) >    two_stream = .true.,
(PID.TID 0000.0001) >    mixed_layer_bc = .false.,
(PID.TID 0000.0001) >    roughness_heat = 0.05,
(PID.TID 0000.0001) >    roughness_moist = 0.05,
(PID.TID 0000.0001) >    roughness_mom = 0.05,
(PID.TID 0000.0001) > /
(PID.TID 0000.0001) >
(PID.TID 0000.0001) > &radiation_nml
(PID.TID 0000.0001) >  solar_constant= 1365.,
(PID.TID 0000.0001) >  del_sol=1.,
(PID.TID 0000.0001) ># ir_tau_eq=
(PID.TID 0000.0001) ># ir_tau_pole=
(PID.TID 0000.0001) >  atm_abs= 0.22,
(PID.TID 0000.0001) ># value that Ruth is using as default:
(PID.TID 0000.0001) ># atm_abs= 0.2486,
(PID.TID 0000.0001) ># sw_diff=
(PID.TID 0000.0001) ># linear_tau=
(PID.TID 0000.0001) ># del_sw=
(PID.TID 0000.0001) >  albedo_value=0.38,
(PID.TID 0000.0001) ># window=
(PID.TID 0000.0001) ># wv_exponent=
(PID.TID 0000.0001) ># solar_exponent=
(PID.TID 0000.0001) >  wv_exponent=0.,
(PID.TID 0000.0001) > /
(PID.TID 0000.0001) >
(PID.TID 0000.0001) > &lscale_cond_nml
(PID.TID 0000.0001) ># hc =
(PID.TID 0000.0001) ># do_evap=
(PID.TID 0000.0001) > /
(PID.TID 0000.0001) >
(PID.TID 0000.0001) > &dargan_bettsmiller_nml
(PID.TID 0000.0001) >#  tau_bm =,
(PID.TID 0000.0001) >#  rhbm =,
(PID.TID 0000.0001) >#  do_shallower=,
(PID.TID 0000.0001) >#  do_changeqref=,
(PID.TID 0000.0001) >#  do_envsat=,
(PID.TID 0000.0001) >#  do_taucape=,
(PID.TID 0000.0001) >#  capetaubm=,
(PID.TID 0000.0001) >#  tau_min =,
(PID.TID 0000.0001) >#  do_virtual=,
(PID.TID 0000.0001) >#  do_bm_shift=,
(PID.TID 0000.0001) > /
(PID.TID 0000.0001) >
(PID.TID 0000.0001) > &surface_flux_nml
(PID.TID 0000.0001) > /
(PID.TID 0000.0001) >
(PID.TID 0000.0001) > &vert_turb_driver_nml
(PID.TID 0000.0001) >#  do_shallow_conv, do_mellor_yamada,
(PID.TID 0000.0001) >#  gust_scheme, constant_gust, use_tau,
(PID.TID 0000.0001) >#  do_molecular_diffusion
(PID.TID 0000.0001) >  do_mellor_yamada=.FALSE.,
(PID.TID 0000.0001) > /
(PID.TID 0000.0001) >
(PID.TID 0000.0001) > &diffusivity_nml
(PID.TID 0000.0001) >#  fixed_depth, depth_0, frac_inner,
(PID.TID 0000.0001) >#  rich_crit_pbl, entr_ratio, parcel_buoy,
(PID.TID 0000.0001) >#  znom, free_atm_diff, free_atm_skyhi_diff,
(PID.TID 0000.0001) >#  pbl_mcm, rich_crit_diff, mix_len, rich_prandtl,
(PID.TID 0000.0001) >#  background_m, background_t, ampns, ampns_max,
(PID.TID 0000.0001) >#  do_virtual_non_mcm
(PID.TID 0000.0001) > /
(PID.TID 0000.0001) >
(PID.TID 0000.0001) > &monin_obukhov_nml
(PID.TID 0000.0001) > /
(PID.TID 0000.0001) >
(PID.TID 0000.0001) > &my25_turb_nml
(PID.TID 0000.0001) > /
(PID.TID 0000.0001) >
(PID.TID 0000.0001) > &shallow_conv_nml
(PID.TID 0000.0001) > /
(PID.TID 0000.0001) >
(PID.TID 0000.0001) > &mixed_layer_nml
(PID.TID 0000.0001) ># evaporation, qflux_amp, depth, qflux_width
(PID.TID 0000.0001) >  depth=5000.,
(PID.TID 0000.0001) > /
(PID.TID 0000.0001) 
(PID.TID 0000.0001) MIXED_LAYER_INIT: finished reading data.atm_gray
(PID.TID 0000.0001) LSCALE_COND_INIT: opening data.atm_gray
(PID.TID 0000.0001)  OPEN_COPY_DATA_FILE: opening file data.atm_gray
(PID.TID 0000.0001) // =======================================================
(PID.TID 0000.0001) // Parameter file "data.atm_gray"
(PID.TID 0000.0001) // =======================================================
(PID.TID 0000.0001) >
(PID.TID 0000.0001) > &atmosphere_nml
(PID.TID 0000.0001) >    turb = .TRUE.,
(PID.TID 0000.0001) >    ldry_convection = .false.,
(PID.TID 0000.0001) >    lwet_convection = .TRUE.,
(PID.TID 0000.0001) >    do_virtual = .false.,
(PID.TID 0000.0001) >    two_stream = .true.,
(PID.TID 0000.0001) >    mixed_layer_bc = .false.,
(PID.TID 0000.0001) >    roughness_heat = 0.05,
(PID.TID 0000.0001) >    roughness_moist = 0.05,
(PID.TID 0000.0001) >    roughness_mom = 0.05,
(PID.TID 0000.0001) > /
(PID.TID 0000.0001) >
(PID.TID 0000.0001) > &radiation_nml
(PID.TID 0000.0001) >  solar_constant= 1365.,
(PID.TID 0000.0001) >  del_sol=1.,
(PID.TID 0000.0001) ># ir_tau_eq=
(PID.TID 0000.0001) ># ir_tau_pole=
(PID.TID 0000.0001) >  atm_abs= 0.22,
(PID.TID 0000.0001) ># value that Ruth is using as default:
(PID.TID 0000.0001) ># atm_abs= 0.2486,
(PID.TID 0000.0001) ># sw_diff=
(PID.TID 0000.0001) ># linear_tau=
(PID.TID 0000.0001) ># del_sw=
(PID.TID 0000.0001) >  albedo_value=0.38,
(PID.TID 0000.0001) ># window=
(PID.TID 0000.0001) ># wv_exponent=
(PID.TID 0000.0001) ># solar_exponent=
(PID.TID 0000.0001) >  wv_exponent=0.,
(PID.TID 0000.0001) > /
(PID.TID 0000.0001) >
(PID.TID 0000.0001) > &lscale_cond_nml
(PID.TID 0000.0001) ># hc =
(PID.TID 0000.0001) ># do_evap=
(PID.TID 0000.0001) > /
(PID.TID 0000.0001) >
(PID.TID 0000.0001) > &dargan_bettsmiller_nml
(PID.TID 0000.0001) >#  tau_bm =,
(PID.TID 0000.0001) >#  rhbm =,
(PID.TID 0000.0001) >#  do_shallower=,
(PID.TID 0000.0001) >#  do_changeqref=,
(PID.TID 0000.0001) >#  do_envsat=,
(PID.TID 0000.0001) >#  do_taucape=,
(PID.TID 0000.0001) >#  capetaubm=,
(PID.TID 0000.0001) >#  tau_min =,
(PID.TID 0000.0001) >#  do_virtual=,
(PID.TID 0000.0001) >#  do_bm_shift=,
(PID.TID 0000.0001) > /
(PID.TID 0000.0001) >
(PID.TID 0000.0001) > &surface_flux_nml
(PID.TID 0000.0001) > /
(PID.TID 0000.0001) >
(PID.TID 0000.0001) > &vert_turb_driver_nml
(PID.TID 0000.0001) >#  do_shallow_conv, do_mellor_yamada,
(PID.TID 0000.0001) >#  gust_scheme, constant_gust, use_tau,
(PID.TID 0000.0001) >#  do_molecular_diffusion
(PID.TID 0000.0001) >  do_mellor_yamada=.FALSE.,
(PID.TID 0000.0001) > /
(PID.TID 0000.0001) >
(PID.TID 0000.0001) > &diffusivity_nml
(PID.TID 0000.0001) >#  fixed_depth, depth_0, frac_inner,
(PID.TID 0000.0001) >#  rich_crit_pbl, entr_ratio, parcel_buoy,
(PID.TID 0000.0001) >#  znom, free_atm_diff, free_atm_skyhi_diff,
(PID.TID 0000.0001) >#  pbl_mcm, rich_crit_diff, mix_len, rich_prandtl,
(PID.TID 0000.0001) >#  background_m, background_t, ampns, ampns_max,
(PID.TID 0000.0001) >#  do_virtual_non_mcm
(PID.TID 0000.0001) > /
(PID.TID 0000.0001) >
(PID.TID 0000.0001) > &monin_obukhov_nml
(PID.TID 0000.0001) > /
(PID.TID 0000.0001) >
(PID.TID 0000.0001) > &my25_turb_nml
(PID.TID 0000.0001) > /
(PID.TID 0000.0001) >
(PID.TID 0000.0001) > &shallow_conv_nml
(PID.TID 0000.0001) > /
(PID.TID 0000.0001) >
(PID.TID 0000.0001) > &mixed_layer_nml
(PID.TID 0000.0001) ># evaporation, qflux_amp, depth, qflux_width
(PID.TID 0000.0001) >  depth=5000.,
(PID.TID 0000.0001) > /
(PID.TID 0000.0001) 
(PID.TID 0000.0001) LSCALE_COND_INIT: finished reading data.atm_gray
(PID.TID 0000.0001) DARGAN_BETTSMILLER_init: opening data.atm_gray
(PID.TID 0000.0001)  OPEN_COPY_DATA_FILE: opening file data.atm_gray
(PID.TID 0000.0001) // =======================================================
(PID.TID 0000.0001) // Parameter file "data.atm_gray"
(PID.TID 0000.0001) // =======================================================
(PID.TID 0000.0001) >
(PID.TID 0000.0001) > &atmosphere_nml
(PID.TID 0000.0001) >    turb = .TRUE.,
(PID.TID 0000.0001) >    ldry_convection = .false.,
(PID.TID 0000.0001) >    lwet_convection = .TRUE.,
(PID.TID 0000.0001) >    do_virtual = .false.,
(PID.TID 0000.0001) >    two_stream = .true.,
(PID.TID 0000.0001) >    mixed_layer_bc = .false.,
(PID.TID 0000.0001) >    roughness_heat = 0.05,
(PID.TID 0000.0001) >    roughness_moist = 0.05,
(PID.TID 0000.0001) >    roughness_mom = 0.05,
(PID.TID 0000.0001) > /
(PID.TID 0000.0001) >
(PID.TID 0000.0001) > &radiation_nml
(PID.TID 0000.0001) >  solar_constant= 1365.,
(PID.TID 0000.0001) >  del_sol=1.,
(PID.TID 0000.0001) ># ir_tau_eq=
(PID.TID 0000.0001) ># ir_tau_pole=
(PID.TID 0000.0001) >  atm_abs= 0.22,
(PID.TID 0000.0001) ># value that Ruth is using as default:
(PID.TID 0000.0001) ># atm_abs= 0.2486,
(PID.TID 0000.0001) ># sw_diff=
(PID.TID 0000.0001) ># linear_tau=
(PID.TID 0000.0001) ># del_sw=
(PID.TID 0000.0001) >  albedo_value=0.38,
(PID.TID 0000.0001) ># window=
(PID.TID 0000.0001) ># wv_exponent=
(PID.TID 0000.0001) ># solar_exponent=
(PID.TID 0000.0001) >  wv_exponent=0.,
(PID.TID 0000.0001) > /
(PID.TID 0000.0001) >
(PID.TID 0000.0001) > &lscale_cond_nml
(PID.TID 0000.0001) ># hc =
(PID.TID 0000.0001) ># do_evap=
(PID.TID 0000.0001) > /
(PID.TID 0000.0001) >
(PID.TID 0000.0001) > &dargan_bettsmiller_nml
(PID.TID 0000.0001) >#  tau_bm =,
(PID.TID 0000.0001) >#  rhbm =,
(PID.TID 0000.0001) >#  do_shallower=,
(PID.TID 0000.0001) >#  do_changeqref=,
(PID.TID 0000.0001) >#  do_envsat=,
(PID.TID 0000.0001) >#  do_taucape=,
(PID.TID 0000.0001) >#  capetaubm=,
(PID.TID 0000.0001) >#  tau_min =,
(PID.TID 0000.0001) >#  do_virtual=,
(PID.TID 0000.0001) >#  do_bm_shift=,
(PID.TID 0000.0001) > /
(PID.TID 0000.0001) >
(PID.TID 0000.0001) > &surface_flux_nml
(PID.TID 0000.0001) > /
(PID.TID 0000.0001) >
(PID.TID 0000.0001) > &vert_turb_driver_nml
(PID.TID 0000.0001) >#  do_shallow_conv, do_mellor_yamada,
(PID.TID 0000.0001) >#  gust_scheme, constant_gust, use_tau,
(PID.TID 0000.0001) >#  do_molecular_diffusion
(PID.TID 0000.0001) >  do_mellor_yamada=.FALSE.,
(PID.TID 0000.0001) > /
(PID.TID 0000.0001) >
(PID.TID 0000.0001) > &diffusivity_nml
(PID.TID 0000.0001) >#  fixed_depth, depth_0, frac_inner,
(PID.TID 0000.0001) >#  rich_crit_pbl, entr_ratio, parcel_buoy,
(PID.TID 0000.0001) >#  znom, free_atm_diff, free_atm_skyhi_diff,
(PID.TID 0000.0001) >#  pbl_mcm, rich_crit_diff, mix_len, rich_prandtl,
(PID.TID 0000.0001) >#  background_m, background_t, ampns, ampns_max,
(PID.TID 0000.0001) >#  do_virtual_non_mcm
(PID.TID 0000.0001) > /
(PID.TID 0000.0001) >
(PID.TID 0000.0001) > &monin_obukhov_nml
(PID.TID 0000.0001) > /
(PID.TID 0000.0001) >
(PID.TID 0000.0001) > &my25_turb_nml
(PID.TID 0000.0001) > /
(PID.TID 0000.0001) >
(PID.TID 0000.0001) > &shallow_conv_nml
(PID.TID 0000.0001) > /
(PID.TID 0000.0001) >
(PID.TID 0000.0001) > &mixed_layer_nml
(PID.TID 0000.0001) ># evaporation, qflux_amp, depth, qflux_width
(PID.TID 0000.0001) >  depth=5000.,
(PID.TID 0000.0001) > /
(PID.TID 0000.0001) 
(PID.TID 0000.0001) DARGAB_BETTSMILLER_INIT: finished reading data.atm_gray
(PID.TID 0000.0001) RADIATION_INIT: opening data.atm_gray
(PID.TID 0000.0001)  OPEN_COPY_DATA_FILE: opening file data.atm_gray
(PID.TID 0000.0001) // =======================================================
(PID.TID 0000.0001) // Parameter file "data.atm_gray"
(PID.TID 0000.0001) // =======================================================
(PID.TID 0000.0001) >
(PID.TID 0000.0001) > &atmosphere_nml
(PID.TID 0000.0001) >    turb = .TRUE.,
(PID.TID 0000.0001) >    ldry_convection = .false.,
(PID.TID 0000.0001) >    lwet_convection = .TRUE.,
(PID.TID 0000.0001) >    do_virtual = .false.,
(PID.TID 0000.0001) >    two_stream = .true.,
(PID.TID 0000.0001) >    mixed_layer_bc = .false.,
(PID.TID 0000.0001) >    roughness_heat = 0.05,
(PID.TID 0000.0001) >    roughness_moist = 0.05,
(PID.TID 0000.0001) >    roughness_mom = 0.05,
(PID.TID 0000.0001) > /
(PID.TID 0000.0001) >
(PID.TID 0000.0001) > &radiation_nml
(PID.TID 0000.0001) >  solar_constant= 1365.,
(PID.TID 0000.0001) >  del_sol=1.,
(PID.TID 0000.0001) ># ir_tau_eq=
(PID.TID 0000.0001) ># ir_tau_pole=
(PID.TID 0000.0001) >  atm_abs= 0.22,
(PID.TID 0000.0001) ># value that Ruth is using as default:
(PID.TID 0000.0001) ># atm_abs= 0.2486,
(PID.TID 0000.0001) ># sw_diff=
(PID.TID 0000.0001) ># linear_tau=
(PID.TID 0000.0001) ># del_sw=
(PID.TID 0000.0001) >  albedo_value=0.38,
(PID.TID 0000.0001) ># window=
(PID.TID 0000.0001) ># wv_exponent=
(PID.TID 0000.0001) ># solar_exponent=
(PID.TID 0000.0001) >  wv_exponent=0.,
(PID.TID 0000.0001) > /
(PID.TID 0000.0001) >
(PID.TID 0000.0001) > &lscale_cond_nml
(PID.TID 0000.0001) ># hc =
(PID.TID 0000.0001) ># do_evap=
(PID.TID 0000.0001) > /
(PID.TID 0000.0001) >
(PID.TID 0000.0001) > &dargan_bettsmiller_nml
(PID.TID 0000.0001) >#  tau_bm =,
(PID.TID 0000.0001) >#  rhbm =,
(PID.TID 0000.0001) >#  do_shallower=,
(PID.TID 0000.0001) >#  do_changeqref=,
(PID.TID 0000.0001) >#  do_envsat=,
(PID.TID 0000.0001) >#  do_taucape=,
(PID.TID 0000.0001) >#  capetaubm=,
(PID.TID 0000.0001) >#  tau_min =,
(PID.TID 0000.0001) >#  do_virtual=,
(PID.TID 0000.0001) >#  do_bm_shift=,
(PID.TID 0000.0001) > /
(PID.TID 0000.0001) >
(PID.TID 0000.0001) > &surface_flux_nml
(PID.TID 0000.0001) > /
(PID.TID 0000.0001) >
(PID.TID 0000.0001) > &vert_turb_driver_nml
(PID.TID 0000.0001) >#  do_shallow_conv, do_mellor_yamada,
(PID.TID 0000.0001) >#  gust_scheme, constant_gust, use_tau,
(PID.TID 0000.0001) >#  do_molecular_diffusion
(PID.TID 0000.0001) >  do_mellor_yamada=.FALSE.,
(PID.TID 0000.0001) > /
(PID.TID 0000.0001) >
(PID.TID 0000.0001) > &diffusivity_nml
(PID.TID 0000.0001) >#  fixed_depth, depth_0, frac_inner,
(PID.TID 0000.0001) >#  rich_crit_pbl, entr_ratio, parcel_buoy,
(PID.TID 0000.0001) >#  znom, free_atm_diff, free_atm_skyhi_diff,
(PID.TID 0000.0001) >#  pbl_mcm, rich_crit_diff, mix_len, rich_prandtl,
(PID.TID 0000.0001) >#  background_m, background_t, ampns, ampns_max,
(PID.TID 0000.0001) >#  do_virtual_non_mcm
(PID.TID 0000.0001) > /
(PID.TID 0000.0001) >
(PID.TID 0000.0001) > &monin_obukhov_nml
(PID.TID 0000.0001) > /
(PID.TID 0000.0001) >
(PID.TID 0000.0001) > &my25_turb_nml
(PID.TID 0000.0001) > /
(PID.TID 0000.0001) >
(PID.TID 0000.0001) > &shallow_conv_nml
(PID.TID 0000.0001) > /
(PID.TID 0000.0001) >
(PID.TID 0000.0001) > &mixed_layer_nml
(PID.TID 0000.0001) ># evaporation, qflux_amp, depth, qflux_width
(PID.TID 0000.0001) >  depth=5000.,
(PID.TID 0000.0001) > /
(PID.TID 0000.0001) 
(PID.TID 0000.0001) RADIATION_INIT: finished reading data.atm_gray
(PID.TID 0000.0001) VERT_TURB_DRIVER_INIT: opening data.atm_gray
(PID.TID 0000.0001)  OPEN_COPY_DATA_FILE: opening file data.atm_gray
(PID.TID 0000.0001) // =======================================================
(PID.TID 0000.0001) // Parameter file "data.atm_gray"
(PID.TID 0000.0001) // =======================================================
(PID.TID 0000.0001) >
(PID.TID 0000.0001) > &atmosphere_nml
(PID.TID 0000.0001) >    turb = .TRUE.,
(PID.TID 0000.0001) >    ldry_convection = .false.,
(PID.TID 0000.0001) >    lwet_convection = .TRUE.,
(PID.TID 0000.0001) >    do_virtual = .false.,
(PID.TID 0000.0001) >    two_stream = .true.,
(PID.TID 0000.0001) >    mixed_layer_bc = .false.,
(PID.TID 0000.0001) >    roughness_heat = 0.05,
(PID.TID 0000.0001) >    roughness_moist = 0.05,
(PID.TID 0000.0001) >    roughness_mom = 0.05,
(PID.TID 0000.0001) > /
(PID.TID 0000.0001) >
(PID.TID 0000.0001) > &radiation_nml
(PID.TID 0000.0001) >  solar_constant= 1365.,
(PID.TID 0000.0001) >  del_sol=1.,
(PID.TID 0000.0001) ># ir_tau_eq=
(PID.TID 0000.0001) ># ir_tau_pole=
(PID.TID 0000.0001) >  atm_abs= 0.22,
(PID.TID 0000.0001) ># value that Ruth is using as default:
(PID.TID 0000.0001) ># atm_abs= 0.2486,
(PID.TID 0000.0001) ># sw_diff=
(PID.TID 0000.0001) ># linear_tau=
(PID.TID 0000.0001) ># del_sw=
(PID.TID 0000.0001) >  albedo_value=0.38,
(PID.TID 0000.0001) ># window=
(PID.TID 0000.0001) ># wv_exponent=
(PID.TID 0000.0001) ># solar_exponent=
(PID.TID 0000.0001) >  wv_exponent=0.,
(PID.TID 0000.0001) > /
(PID.TID 0000.0001) >
(PID.TID 0000.0001) > &lscale_cond_nml
(PID.TID 0000.0001) ># hc =
(PID.TID 0000.0001) ># do_evap=
(PID.TID 0000.0001) > /
(PID.TID 0000.0001) >
(PID.TID 0000.0001) > &dargan_bettsmiller_nml
(PID.TID 0000.0001) >#  tau_bm =,
(PID.TID 0000.0001) >#  rhbm =,
(PID.TID 0000.0001) >#  do_shallower=,
(PID.TID 0000.0001) >#  do_changeqref=,
(PID.TID 0000.0001) >#  do_envsat=,
(PID.TID 0000.0001) >#  do_taucape=,
(PID.TID 0000.0001) >#  capetaubm=,
(PID.TID 0000.0001) >#  tau_min =,
(PID.TID 0000.0001) >#  do_virtual=,
(PID.TID 0000.0001) >#  do_bm_shift=,
(PID.TID 0000.0001) > /
(PID.TID 0000.0001) >
(PID.TID 0000.0001) > &surface_flux_nml
(PID.TID 0000.0001) > /
(PID.TID 0000.0001) >
(PID.TID 0000.0001) > &vert_turb_driver_nml
(PID.TID 0000.0001) >#  do_shallow_conv, do_mellor_yamada,
(PID.TID 0000.0001) >#  gust_scheme, constant_gust, use_tau,
(PID.TID 0000.0001) >#  do_molecular_diffusion
(PID.TID 0000.0001) >  do_mellor_yamada=.FALSE.,
(PID.TID 0000.0001) > /
(PID.TID 0000.0001) >
(PID.TID 0000.0001) > &diffusivity_nml
(PID.TID 0000.0001) >#  fixed_depth, depth_0, frac_inner,
(PID.TID 0000.0001) >#  rich_crit_pbl, entr_ratio, parcel_buoy,
(PID.TID 0000.0001) >#  znom, free_atm_diff, free_atm_skyhi_diff,
(PID.TID 0000.0001) >#  pbl_mcm, rich_crit_diff, mix_len, rich_prandtl,
(PID.TID 0000.0001) >#  background_m, background_t, ampns, ampns_max,
(PID.TID 0000.0001) >#  do_virtual_non_mcm
(PID.TID 0000.0001) > /
(PID.TID 0000.0001) >
(PID.TID 0000.0001) > &monin_obukhov_nml
(PID.TID 0000.0001) > /
(PID.TID 0000.0001) >
(PID.TID 0000.0001) > &my25_turb_nml
(PID.TID 0000.0001) > /
(PID.TID 0000.0001) >
(PID.TID 0000.0001) > &shallow_conv_nml
(PID.TID 0000.0001) > /
(PID.TID 0000.0001) >
(PID.TID 0000.0001) > &mixed_layer_nml
(PID.TID 0000.0001) ># evaporation, qflux_amp, depth, qflux_width
(PID.TID 0000.0001) >  depth=5000.,
(PID.TID 0000.0001) > /
(PID.TID 0000.0001) 
(PID.TID 0000.0001) VERT_TURB_DRIVER_INIT: finished reading data.atm_gray
(PID.TID 0000.0001) ------------------------------------------------------------
(PID.TID 0000.0001) DIAGNOSTICS_SET_LEVELS: done
(PID.TID 0000.0001)  Total Nb of available Diagnostics: ndiagt=   208
(PID.TID 0000.0001)  write list of available Diagnostics to file: available_diagnostics.log
(PID.TID 0000.0001) SETDIAG: Allocate  1 x  1 Levels for Diagnostic #    23 ETAN
(PID.TID 0000.0001) SETDIAG: Allocate  1 x  1 Levels for Diagnostic #    24 ETANSQ
(PID.TID 0000.0001) SETDIAG: Allocate  1 x  1 Levels for Diagnostic #    25 DETADT2
(PID.TID 0000.0001) SETDIAG: Allocate  1 x  1 Levels for Diagnostic #   195 AtPhCnvP
(PID.TID 0000.0001) SETDIAG: Allocate  1 x  1 Levels for Diagnostic #   196 AtPhLscP
(PID.TID 0000.0001) SETDIAG: Allocate  1 x  1 Levels for Diagnostic #   202 AtPhSens
(PID.TID 0000.0001) SETDIAG: Allocate  1 x  1 Levels for Diagnostic #   203 AtPhEvap
(PID.TID 0000.0001) SETDIAG: Allocate  1 x  1 Levels for Diagnostic #   204 AtPhTauX
(PID.TID 0000.0001) SETDIAG: Allocate  1 x  1 Levels for Diagnostic #   205 AtPhTauY
(PID.TID 0000.0001) SETDIAG: Allocate  1 x  1 Levels for Diagnostic #   188 AtPh_SST
(PID.TID 0000.0001) SETDIAG: Allocate  1 x  1 Levels for Diagnostic #   197 AtPhInSR
(PID.TID 0000.0001) SETDIAG: Allocate  1 x  1 Levels for Diagnostic #   198 AtPhOLR
(PID.TID 0000.0001) SETDIAG: Allocate  1 x  1 Levels for Diagnostic #   199 AtPhNSSR
(PID.TID 0000.0001) SETDIAG: Allocate  1 x  1 Levels for Diagnostic #   200 AtPhDSLR
(PID.TID 0000.0001) SETDIAG: Allocate  1 x  1 Levels for Diagnostic #   201 AtPhUSLR
(PID.TID 0000.0001) SETDIAG: Allocate 26 x  1 Levels for Diagnostic #    29 UVEL
(PID.TID 0000.0001) SETDIAG: Allocate 26 x  1 Levels for Diagnostic #    30 VVEL
(PID.TID 0000.0001) SETDIAG: Allocate 26 x  1 Levels for Diagnostic #    31 WVEL
(PID.TID 0000.0001) SETDIAG: Allocate 26 x  1 Levels for Diagnostic #    26 THETA
(PID.TID 0000.0001) SETDIAG: Allocate 26 x  1 Levels for Diagnostic #    27 SALT
(PID.TID 0000.0001) SETDIAG: Allocate 26 x  1 Levels for Diagnostic #    34 UVELSQ
(PID.TID 0000.0001) SETDIAG: Allocate 26 x  1 Levels for Diagnostic #    35 VVELSQ
(PID.TID 0000.0001) SETDIAG: Allocate 26 x  1 Levels for Diagnostic #    36 WVELSQ
(PID.TID 0000.0001) SETDIAG: Allocate 26 x  1 Levels for Diagnostic #    32 THETASQ
(PID.TID 0000.0001) SETDIAG: Allocate 26 x  1 Levels for Diagnostic #    33 SALTSQ
(PID.TID 0000.0001) SETDIAG: Allocate 26 x  1 Levels for Diagnostic #    43 UVELMASS
(PID.TID 0000.0001) SETDIAG: Allocate 26 x  1 Levels for Diagnostic #    44 VVELMASS
(PID.TID 0000.0001) SETDIAG: Allocate 26 x  1 Levels for Diagnostic #    39 UV_VEL_C
(PID.TID 0000.0001) SETDIAG: Allocate 26 x  1 Levels for Diagnostic #    28 RELHUM
(PID.TID 0000.0001)   space allocated for all diagnostics:     379 levels
(PID.TID 0000.0001)   set mate pointer for diag #    29  UVEL     , Parms: UUR     MR , mate:    30
(PID.TID 0000.0001)   set mate pointer for diag #    30  VVEL     , Parms: VVR     MR , mate:    29
(PID.TID 0000.0001)   set mate pointer for diag #    34  UVELSQ   , Parms: UURP    MR , mate:    35
(PID.TID 0000.0001)   set mate pointer for diag #    35  VVELSQ   , Parms: VVRP    MR , mate:    34
(PID.TID 0000.0001)   set mate pointer for diag #    43  UVELMASS , Parms: UUr     MR , mate:    44
(PID.TID 0000.0001)   set mate pointer for diag #    44  VVELMASS , Parms: VVr     MR , mate:    43
(PID.TID 0000.0001)   set mate pointer for diag #    39  UV_VEL_C , Parms: UMR     MR , mate:    39
(PID.TID 0000.0001) DIAGNOSTICS_SET_POINTERS: Set levels for Outp.Stream: surfDiag
(PID.TID 0000.0001)  Levels:       1.
(PID.TID 0000.0001) DIAGNOSTICS_SET_POINTERS: Set levels for Outp.Stream: dynDiag
(PID.TID 0000.0001)  Levels:       1.   2.   3.   4.   5.   6.   7.   8.   9.  10.  11.  12.  13.  14.  15.  16.  17.  18.  19.  20.
(PID.TID 0000.0001)  Levels:      21.  22.  23.  24.  25.  26.
(PID.TID 0000.0001) DIAGNOSTICS_SET_POINTERS: done
(PID.TID 0000.0001) ------------------------------------------------------------
(PID.TID 0000.0001) DIAGSTATS_SET_REGIONS: define no region
(PID.TID 0000.0001) ------------------------------------------------------------
(PID.TID 0000.0001) SETDIAG: Allocate  1 Levels for Stats-Diag #    23 ETAN
(PID.TID 0000.0001) SETDIAG: Allocate 26 Levels for Stats-Diag #    26 THETA
(PID.TID 0000.0001) SETDIAG: Allocate 26 Levels for Stats-Diag #    27 SALT
(PID.TID 0000.0001) SETDIAG: Allocate 26 Levels for Stats-Diag #    28 RELHUM
(PID.TID 0000.0001) SETDIAG: Allocate 26 Levels for Stats-Diag #    37 UE_VEL_C
(PID.TID 0000.0001) SETDIAG: Allocate 26 Levels for Stats-Diag #    38 VN_VEL_C
(PID.TID 0000.0001) SETDIAG: Allocate 26 Levels for Stats-Diag #    31 WVEL
(PID.TID 0000.0001) SETDIAG: Allocate 26 Levels for Stats-Diag #   189 AtPhdTdt
(PID.TID 0000.0001) SETDIAG: Allocate 26 Levels for Stats-Diag #   190 AtPhdQdt
(PID.TID 0000.0001) SETDIAG: Allocate 26 Levels for Stats-Diag #   191 AtPhdUdt
(PID.TID 0000.0001) SETDIAG: Allocate 26 Levels for Stats-Diag #   192 AtPhdVdt
(PID.TID 0000.0001) SETDIAG: Allocate 26 Levels for Stats-Diag #   193 AtPhDifT
(PID.TID 0000.0001) SETDIAG: Allocate 26 Levels for Stats-Diag #   194 AtPhDifM
(PID.TID 0000.0001) SETDIAG: Allocate 26 Levels for Stats-Diag #   208 AtPhDisH
(PID.TID 0000.0001) SETDIAG: Allocate 26 Levels for Stats-Diag #   206 AtPhdtTg
(PID.TID 0000.0001) SETDIAG: Allocate 26 Levels for Stats-Diag #   207 AtPhdtQg
(PID.TID 0000.0001) SETDIAG: Allocate 26 Levels for Stats-Diag #   187 SHAP_dKE
(PID.TID 0000.0001) SETDIAG: Allocate 26 Levels for Stats-Diag #    98 MoistCor
(PID.TID 0000.0001) SETDIAG: Allocate  1 Levels for Stats-Diag #   202 AtPhSens
(PID.TID 0000.0001) SETDIAG: Allocate  1 Levels for Stats-Diag #   203 AtPhEvap
(PID.TID 0000.0001) SETDIAG: Allocate  1 Levels for Stats-Diag #   204 AtPhTauX
(PID.TID 0000.0001) SETDIAG: Allocate  1 Levels for Stats-Diag #   205 AtPhTauY
(PID.TID 0000.0001) SETDIAG: Allocate  1 Levels for Stats-Diag #   195 AtPhCnvP
(PID.TID 0000.0001) SETDIAG: Allocate  1 Levels for Stats-Diag #   196 AtPhLscP
(PID.TID 0000.0001) SETDIAG: Allocate  1 Levels for Stats-Diag #   188 AtPh_SST
(PID.TID 0000.0001) SETDIAG: Allocate  1 Levels for Stats-Diag #   197 AtPhInSR
(PID.TID 0000.0001) SETDIAG: Allocate  1 Levels for Stats-Diag #   198 AtPhOLR
(PID.TID 0000.0001) SETDIAG: Allocate  1 Levels for Stats-Diag #   199 AtPhNSSR
(PID.TID 0000.0001) SETDIAG: Allocate  1 Levels for Stats-Diag #   200 AtPhDSLR
(PID.TID 0000.0001) SETDIAG: Allocate  1 Levels for Stats-Diag #   201 AtPhUSLR
(PID.TID 0000.0001)   space allocated for all stats-diags:     455 levels
(PID.TID 0000.0001) DIAGSTATS_SET_POINTERS: done
(PID.TID 0000.0001) ------------------------------------------------------------
(PID.TID 0000.0001) DIAGSTATS_INI_IO: open file: dynStDiag.0000000000.txt , unit=     9
(PID.TID 0000.0001) DIAGSTATS_INI_IO: open file: diffStDiag.0000000000.txt , unit=    10
(PID.TID 0000.0001) DIAGSTATS_INI_IO: open file: flxStDiag.0000000000.txt , unit=    16
(PID.TID 0000.0001) INI_GLOBAL_DOMAIN: Found  24 CS-corner Pts in the domain
(PID.TID 0000.0001) %MON fCori_max                    =   1.4574827780704E-04
(PID.TID 0000.0001) %MON fCori_min                    =  -1.4574827780704E-04
(PID.TID 0000.0001) %MON fCori_mean                   =   0.0000000000000E+00
(PID.TID 0000.0001) %MON fCori_sd                     =   8.4202189509968E-05
(PID.TID 0000.0001) %MON fCoriG_max                   =   1.4584247033981E-04
(PID.TID 0000.0001) %MON fCoriG_min                   =  -1.4584247033981E-04
(PID.TID 0000.0001) %MON fCoriG_mean                  =   2.2587545260115E-21
(PID.TID 0000.0001) %MON fCoriG_sd                    =   8.4202189509968E-05
(PID.TID 0000.0001) %MON fCoriCos_max                 =   1.4580166994612E-04
(PID.TID 0000.0001) %MON fCoriCos_min                 =   5.2407700865903E-06
(PID.TID 0000.0001) %MON fCoriCos_mean                =   1.1514045869113E-04
(PID.TID 0000.0001) %MON fCoriCos_sd                  =   3.0375849106513E-05
(PID.TID 0000.0001) INI_CG2D: CG2D normalisation factor =  9.9119603843467461E-06
(PID.TID 0000.0001) INI_CG2D: cg2dTolerance = 1.403820515321401E-10 (Area=5.0986421043E+14)
(PID.TID 0000.0001) 
(PID.TID 0000.0001) // =======================================================
(PID.TID 0000.0001) // Model configuration
(PID.TID 0000.0001) // =======================================================
(PID.TID 0000.0001) //
(PID.TID 0000.0001) // "Physical" paramters ( PARM01 in namelist )
(PID.TID 0000.0001) //
(PID.TID 0000.0001) buoyancyRelation = /* Type of relation to get Buoyancy */
(PID.TID 0000.0001)               'ATMOSPHERIC'
(PID.TID 0000.0001)     ;
(PID.TID 0000.0001) fluidIsAir   =  /* fluid major constituent is Air */
(PID.TID 0000.0001)                   T
(PID.TID 0000.0001)     ;
(PID.TID 0000.0001) fluidIsWater =  /* fluid major constituent is Water */
(PID.TID 0000.0001)                   F
(PID.TID 0000.0001)     ;
(PID.TID 0000.0001) usingPCoords =  /* use p (or p*) vertical coordinate */
(PID.TID 0000.0001)                   T
(PID.TID 0000.0001)     ;
(PID.TID 0000.0001) usingZCoords =  /* use z (or z*) vertical coordinate */
(PID.TID 0000.0001)                   F
(PID.TID 0000.0001)     ;
(PID.TID 0000.0001) tRef =   /* Reference temperature profile ( oC or K ) */
(PID.TID 0000.0001)                 2.951000000000000E+02,      /* K =  1 */
(PID.TID 0000.0001)                 2.952000000000000E+02,      /* K =  2 */
(PID.TID 0000.0001)                 2.954000000000000E+02,      /* K =  3 */
(PID.TID 0000.0001)                 2.956000000000000E+02,      /* K =  4 */
(PID.TID 0000.0001)                 2.960000000000000E+02,      /* K =  5 */
(PID.TID 0000.0001)                 2.966000000000000E+02,      /* K =  6 */
(PID.TID 0000.0001)                 2.973000000000000E+02,      /* K =  7 */
(PID.TID 0000.0001)                 2.982000000000000E+02,      /* K =  8 */
(PID.TID 0000.0001)                 2.993000000000000E+02,      /* K =  9 */
(PID.TID 0000.0001)                 3.006000000000000E+02,      /* K = 10 */
(PID.TID 0000.0001)                 3.024000000000000E+02,      /* K = 11 */
(PID.TID 0000.0001)                 3.059000000000000E+02,      /* K = 12 */
(PID.TID 0000.0001)                 3.118000000000000E+02,      /* K = 13 */
(PID.TID 0000.0001)                 3.218000000000000E+02,      /* K = 14 */
(PID.TID 0000.0001)                 3.383000000000000E+02,      /* K = 15 */
(PID.TID 0000.0001)                 3.595000000000000E+02,      /* K = 16 */
(PID.TID 0000.0001)                 3.828000000000000E+02,      /* K = 17 */
(PID.TID 0000.0001)                 4.086000000000000E+02,      /* K = 18 */
(PID.TID 0000.0001)                 4.375000000000000E+02,      /* K = 19 */
(PID.TID 0000.0001)                 4.706000000000000E+02,      /* K = 20 */
(PID.TID 0000.0001)                 5.092000000000000E+02,      /* K = 21 */
(PID.TID 0000.0001)                 5.558000000000000E+02,      /* K = 22 */
(PID.TID 0000.0001)                 6.149000000000000E+02,      /* K = 23 */
(PID.TID 0000.0001)                 6.963000000000000E+02,      /* K = 24 */
(PID.TID 0000.0001)                 8.272000000000000E+02,      /* K = 25 */
(PID.TID 0000.0001)                 1.153600000000000E+03       /* K = 26 */
(PID.TID 0000.0001)     ;
(PID.TID 0000.0001) sRef =   /* Reference salinity profile ( psu ) */
(PID.TID 0000.0001)    26 @  0.000000000000000E+00              /* K =  1: 26 */
(PID.TID 0000.0001)     ;
(PID.TID 0000.0001) useStrainTensionVisc= /* Use StrainTension Form of Viscous Operator */
(PID.TID 0000.0001)                   F
(PID.TID 0000.0001)     ;
(PID.TID 0000.0001) useVariableVisc = /* Use variable horizontal viscosity */
(PID.TID 0000.0001)                   F
(PID.TID 0000.0001)     ;
(PID.TID 0000.0001) useHarmonicVisc = /* Use harmonic horizontal viscosity */
(PID.TID 0000.0001)                   F
(PID.TID 0000.0001)     ;
(PID.TID 0000.0001) useBiharmonicVisc= /* Use biharmonic horiz.  viscosity */
(PID.TID 0000.0001)                   F
(PID.TID 0000.0001)     ;
(PID.TID 0000.0001) useSmag3D = /* Use isotropic 3-D Smagorinsky viscosity */
(PID.TID 0000.0001)                   F
(PID.TID 0000.0001)     ;
(PID.TID 0000.0001) viscAh  =   /* Lateral harmonic viscosity ( m^2/s ) */
(PID.TID 0000.0001)                 0.000000000000000E+00
(PID.TID 0000.0001)     ;
(PID.TID 0000.0001) viscA4  =   /* Lateral biharmonic viscosity ( m^4/s ) */
(PID.TID 0000.0001)                 0.000000000000000E+00
(PID.TID 0000.0001)     ;
(PID.TID 0000.0001) no_slip_sides =  /* Viscous BCs: No-slip sides */
(PID.TID 0000.0001)                   F
(PID.TID 0000.0001)     ;
(PID.TID 0000.0001) sideDragFactor = /* side-drag scaling factor (non-dim) */
(PID.TID 0000.0001)                 2.000000000000000E+00
(PID.TID 0000.0001)     ;
(PID.TID 0000.0001) viscArNr = /* vertical profile of vertical viscosity (Pa^2/s )*/
(PID.TID 0000.0001)    26 @  0.000000000000000E+00              /* K =  1: 26 */
(PID.TID 0000.0001)     ;
(PID.TID 0000.0001) no_slip_bottom =  /* Viscous BCs: No-slip bottom */
(PID.TID 0000.0001)                   F
(PID.TID 0000.0001)     ;
(PID.TID 0000.0001) bottomDragLinear = /* linear bottom-drag coefficient ( m/s ) */
(PID.TID 0000.0001)                 0.000000000000000E+00
(PID.TID 0000.0001)     ;
(PID.TID 0000.0001) bottomDragQuadratic = /* quadratic bottom-drag coefficient (-) */
(PID.TID 0000.0001)                 0.000000000000000E+00
(PID.TID 0000.0001)     ;
(PID.TID 0000.0001) diffKhT =   /* Laplacian diffusion of heat laterally ( m^2/s ) */
(PID.TID 0000.0001)                 0.000000000000000E+00
(PID.TID 0000.0001)     ;
(PID.TID 0000.0001) diffK4T =   /* Biharmonic diffusion of heat laterally ( m^4/s ) */
(PID.TID 0000.0001)                 0.000000000000000E+00
(PID.TID 0000.0001)     ;
(PID.TID 0000.0001) diffKhS =   /* Laplacian diffusion of salt laterally ( m^2/s ) */
(PID.TID 0000.0001)                 0.000000000000000E+00
(PID.TID 0000.0001)     ;
(PID.TID 0000.0001) diffK4S =   /* Biharmonic diffusion of salt laterally ( m^4/s ) */
(PID.TID 0000.0001)                 0.000000000000000E+00
(PID.TID 0000.0001)     ;
(PID.TID 0000.0001) diffKrNrT = /* vertical profile of vertical diffusion of Temp (Pa^2/s )*/
(PID.TID 0000.0001)    26 @  0.000000000000000E+00              /* K =  1: 26 */
(PID.TID 0000.0001)     ;
(PID.TID 0000.0001) diffKrNrS = /* vertical profile of vertical diffusion of Salt (Pa^2/s )*/
(PID.TID 0000.0001)    26 @  0.000000000000000E+00              /* K =  1: 26 */
(PID.TID 0000.0001)     ;
(PID.TID 0000.0001) diffKrBL79surf = /* Surface diffusion for Bryan and Lewis 79 ( m^2/s ) */
(PID.TID 0000.0001)                 0.000000000000000E+00
(PID.TID 0000.0001)     ;
(PID.TID 0000.0001) diffKrBL79deep = /* Deep diffusion for Bryan and Lewis 1979 ( m^2/s ) */
(PID.TID 0000.0001)                 0.000000000000000E+00
(PID.TID 0000.0001)     ;
(PID.TID 0000.0001) diffKrBL79scl = /* Depth scale for Bryan and Lewis 1979 ( m ) */
(PID.TID 0000.0001)                 2.000000000000000E+02
(PID.TID 0000.0001)     ;
(PID.TID 0000.0001) diffKrBL79Ho = /* Turning depth for Bryan and Lewis 1979 ( m ) */
(PID.TID 0000.0001)                -2.000000000000000E+03
(PID.TID 0000.0001)     ;
(PID.TID 0000.0001) ivdc_kappa = /* Implicit Vertical Diffusivity for Convection (Pa^2/s) */
(PID.TID 0000.0001)                 0.000000000000000E+00
(PID.TID 0000.0001)     ;
(PID.TID 0000.0001) hMixCriteria=  /* Criteria for mixed-layer diagnostic */
(PID.TID 0000.0001)                -8.000000000000000E-01
(PID.TID 0000.0001)     ;
(PID.TID 0000.0001) dRhoSmall =  /* Parameter for mixed-layer diagnostic */
(PID.TID 0000.0001)                 1.000000000000000E-06
(PID.TID 0000.0001)     ;
(PID.TID 0000.0001) hMixSmooth=  /* Smoothing parameter for mixed-layer diagnostic */
(PID.TID 0000.0001)                 0.000000000000000E+00
(PID.TID 0000.0001)     ;
(PID.TID 0000.0001) eosType =  /* Type of Equation of State */
(PID.TID 0000.0001)               'IDEALG'
(PID.TID 0000.0001)     ;
(PID.TID 0000.0001) celsius2K = /* 0 degree Celsius converted to Kelvin ( K ) */
(PID.TID 0000.0001)                 2.731500000000000E+02
(PID.TID 0000.0001)     ;
(PID.TID 0000.0001) atm_Rd =  /* gas constant for dry air ( J/kg/K ) */
(PID.TID 0000.0001)                 2.870400000000000E+02
(PID.TID 0000.0001)     ;
(PID.TID 0000.0001) atm_Cp =  /* specific heat (Cp) of dry air ( J/kg/K ) */
(PID.TID 0000.0001)                 1.004640000000000E+03
(PID.TID 0000.0001)     ;
(PID.TID 0000.0001) atm_kappa =  /* kappa (=Rd/Cp ) of dry air */
(PID.TID 0000.0001)                 2.857142857142857E-01
(PID.TID 0000.0001)     ;
(PID.TID 0000.0001) atm_Rq = /* water vap. specific vol. anomaly relative to dry air */
(PID.TID 0000.0001)                 6.078000000000000E-01
(PID.TID 0000.0001)     ;
(PID.TID 0000.0001) atm_Po =  /* standard reference pressure ( Pa ) */
(PID.TID 0000.0001)                 1.000000000000000E+05
(PID.TID 0000.0001)     ;
(PID.TID 0000.0001) integr_GeoPot =  /* select how the geopotential is integrated */
(PID.TID 0000.0001)                       2
(PID.TID 0000.0001)     ;
(PID.TID 0000.0001) selectFindRoSurf=  /* select how Surf.Ref. pressure is defined */
(PID.TID 0000.0001)                       1
(PID.TID 0000.0001)     ;
(PID.TID 0000.0001) rhoConst  = /* Reference density (Boussinesq)  ( kg/m^3 ) */
(PID.TID 0000.0001)                 1.000000000000000E+00
(PID.TID 0000.0001)     ;
(PID.TID 0000.0001) rhoFacC = /* normalized Reference density @ cell-Center (-) */
(PID.TID 0000.0001)    26 @  1.000000000000000E+00              /* K =  1: 26 */
(PID.TID 0000.0001)     ;
(PID.TID 0000.0001) rhoFacF = /* normalized Reference density @ W-Interface (-) */
(PID.TID 0000.0001)    27 @  1.000000000000000E+00              /* K =  1: 27 */
(PID.TID 0000.0001)     ;
(PID.TID 0000.0001) rhoConstFresh = /* Fresh-water reference density ( kg/m^3 ) */
(PID.TID 0000.0001)                 1.000000000000000E+00
(PID.TID 0000.0001)     ;
(PID.TID 0000.0001) gravity =   /* Gravitational acceleration ( m/s^2 ) */
(PID.TID 0000.0001)                 9.800000000000001E+00
(PID.TID 0000.0001)     ;
(PID.TID 0000.0001) gBaro =   /* Barotropic gravity ( m/s^2 ) */
(PID.TID 0000.0001)                 9.800000000000001E+00
(PID.TID 0000.0001)     ;
(PID.TID 0000.0001) rotationPeriod =   /* Rotation Period ( s ) */
(PID.TID 0000.0001)                 8.616400000000000E+04
(PID.TID 0000.0001)     ;
(PID.TID 0000.0001) omega =   /* Angular velocity ( rad/s ) */
(PID.TID 0000.0001)                 7.292123516990375E-05
(PID.TID 0000.0001)     ;
(PID.TID 0000.0001) f0 =   /* Reference coriolis parameter ( 1/s ) */
(PID.TID 0000.0001)                 1.000000000000000E-04
(PID.TID 0000.0001)     ;
(PID.TID 0000.0001) beta =   /* Beta ( 1/(m.s) ) */
(PID.TID 0000.0001)                 9.999999999999999E-12
(PID.TID 0000.0001)     ;
(PID.TID 0000.0001) fPrime =   /* Second coriolis parameter ( 1/s ) */
(PID.TID 0000.0001)                 0.000000000000000E+00
(PID.TID 0000.0001)     ;
(PID.TID 0000.0001) rigidLid =   /* Rigid lid on/off flag */
(PID.TID 0000.0001)                   F
(PID.TID 0000.0001)     ;
(PID.TID 0000.0001) implicitFreeSurface =   /* Implicit free surface on/off flag */
(PID.TID 0000.0001)                   T
(PID.TID 0000.0001)     ;
(PID.TID 0000.0001) freeSurfFac =   /* Implicit free surface factor */
(PID.TID 0000.0001)                 1.000000000000000E+00
(PID.TID 0000.0001)     ;
(PID.TID 0000.0001) implicSurfPress =  /* Surface Pressure implicit factor (0-1)*/
(PID.TID 0000.0001)                 1.000000000000000E+00
(PID.TID 0000.0001)     ;
(PID.TID 0000.0001) implicDiv2Dflow =  /* Barot. Flow Div. implicit factor (0-1)*/
(PID.TID 0000.0001)                 1.000000000000000E+00
(PID.TID 0000.0001)     ;
(PID.TID 0000.0001) uniformLin_PhiSurf = /* use uniform Bo_surf on/off flag*/
(PID.TID 0000.0001)                   F
(PID.TID 0000.0001)     ;
(PID.TID 0000.0001) uniformFreeSurfLev = /* free-surface level-index is uniform */
(PID.TID 0000.0001)                   F
(PID.TID 0000.0001)     ;
(PID.TID 0000.0001) hFacMin =   /* minimum partial cell factor (hFac) */
(PID.TID 0000.0001)                 1.000000000000000E+00
(PID.TID 0000.0001)     ;
(PID.TID 0000.0001) hFacMinDr = /* minimum partial cell thickness (Pa) */
(PID.TID 0000.0001)                 1.000000000000000E+00
(PID.TID 0000.0001)     ;
(PID.TID 0000.0001) exactConserv =  /* Exact Volume Conservation on/off flag*/
(PID.TID 0000.0001)                   T
(PID.TID 0000.0001)     ;
(PID.TID 0000.0001) linFSConserveTr = /* Tracer correction for Lin Free Surface on/off flag*/
(PID.TID 0000.0001)                   F
(PID.TID 0000.0001)     ;
(PID.TID 0000.0001) nonlinFreeSurf = /* Non-linear Free Surf. options (-1,0,1,2,3)*/
(PID.TID 0000.0001)                       4
(PID.TID 0000.0001)      -1,0= Off ; 1,2,3= On, 2=+rescale gU,gV, 3=+update cg2d solv.
(PID.TID 0000.0001)     ;
(PID.TID 0000.0001) hFacInf =   /* lower threshold for hFac (nonlinFreeSurf only)*/
(PID.TID 0000.0001)                 2.000000000000000E-01
(PID.TID 0000.0001)     ;
(PID.TID 0000.0001) hFacSup =   /* upper threshold for hFac (nonlinFreeSurf only)*/
(PID.TID 0000.0001)                 2.000000000000000E+00
(PID.TID 0000.0001)     ;
(PID.TID 0000.0001) select_rStar = /* r* Vertical coord. options (=0 r coord.; >0 uses r*)*/
(PID.TID 0000.0001)                       2
(PID.TID 0000.0001)     ;
(PID.TID 0000.0001) useRealFreshWaterFlux = /* Real Fresh Water Flux on/off flag*/
(PID.TID 0000.0001)                   F
(PID.TID 0000.0001)     ;
(PID.TID 0000.0001) temp_EvPrRn = /* Temp. of Evap/Prec/R (UNSET=use local T)(oC)*/
(PID.TID 0000.0001)                 1.234567000000000E+05
(PID.TID 0000.0001)     ;
(PID.TID 0000.0001) salt_EvPrRn = /* Salin. of Evap/Prec/R (UNSET=use local S)(psu)*/
(PID.TID 0000.0001)                 0.000000000000000E+00
(PID.TID 0000.0001)     ;
(PID.TID 0000.0001) selectAddFluid = /* option for mass source/sink of fluid (=0: off) */
(PID.TID 0000.0001)                       0
(PID.TID 0000.0001)     ;
(PID.TID 0000.0001) temp_addMass = /* Temp. of addMass array (UNSET=use local T)(oC)*/
(PID.TID 0000.0001)                 1.234567000000000E+05
(PID.TID 0000.0001)     ;
(PID.TID 0000.0001) salt_addMass = /* Salin. of addMass array (UNSET=use local S)(psu)*/
(PID.TID 0000.0001)                 0.000000000000000E+00
(PID.TID 0000.0001)     ;
(PID.TID 0000.0001) convertFW2Salt = /* convert F.W. Flux to Salt Flux (-1=use local S)(psu)*/
(PID.TID 0000.0001)                 3.500000000000000E+01
(PID.TID 0000.0001)     ;
(PID.TID 0000.0001) use3Dsolver = /* use 3-D pressure solver on/off flag */
(PID.TID 0000.0001)                   F
(PID.TID 0000.0001)     ;
(PID.TID 0000.0001) nonHydrostatic =  /* Non-Hydrostatic on/off flag */
(PID.TID 0000.0001)                   F
(PID.TID 0000.0001)     ;
(PID.TID 0000.0001) nh_Am2 = /* Non-Hydrostatic terms scaling factor */
(PID.TID 0000.0001)                 1.000000000000000E+00
(PID.TID 0000.0001)     ;
(PID.TID 0000.0001) implicitNHPress = /* Non-Hyd Pressure implicit factor (0-1)*/
(PID.TID 0000.0001)                 1.000000000000000E+00
(PID.TID 0000.0001)     ;
(PID.TID 0000.0001) selectNHfreeSurf = /* Non-Hyd (free-)Surface option */
(PID.TID 0000.0001)                       0
(PID.TID 0000.0001)     ;
(PID.TID 0000.0001) quasiHydrostatic = /* Quasi-Hydrostatic on/off flag */
(PID.TID 0000.0001)                   F
(PID.TID 0000.0001)     ;
(PID.TID 0000.0001) calc_wVelocity = /* vertical velocity calculation on/off flag */
(PID.TID 0000.0001)                   T
(PID.TID 0000.0001)     ;
(PID.TID 0000.0001) momStepping =  /* Momentum equation on/off flag */
(PID.TID 0000.0001)                   T
(PID.TID 0000.0001)     ;
(PID.TID 0000.0001) vectorInvariantMomentum= /* Vector-Invariant Momentum on/off */
(PID.TID 0000.0001)                   T
(PID.TID 0000.0001)     ;
(PID.TID 0000.0001) momAdvection =  /* Momentum advection on/off flag */
(PID.TID 0000.0001)                   T
(PID.TID 0000.0001)     ;
(PID.TID 0000.0001) momViscosity =  /* Momentum viscosity on/off flag */
(PID.TID 0000.0001)                   T
(PID.TID 0000.0001)     ;
(PID.TID 0000.0001) momImplVertAdv= /* Momentum implicit vert. advection on/off*/
(PID.TID 0000.0001)                   F
(PID.TID 0000.0001)     ;
(PID.TID 0000.0001) implicitViscosity = /* Implicit viscosity on/off flag */
(PID.TID 0000.0001)                   F
(PID.TID 0000.0001)     ;
(PID.TID 0000.0001) metricTerms =  /* metric-Terms on/off flag */
(PID.TID 0000.0001)                   F
(PID.TID 0000.0001)     ;
(PID.TID 0000.0001) useNHMTerms = /* Non-Hydrostatic Metric-Terms on/off */
(PID.TID 0000.0001)                   F
(PID.TID 0000.0001)     ;
(PID.TID 0000.0001) selectCoriMap = /* Coriolis Map options (0,1,2,3)*/
(PID.TID 0000.0001)                       2
(PID.TID 0000.0001)     0= f-Plane ; 1= Beta-Plane ; 2= Spherical ; 3= read from file
(PID.TID 0000.0001)     ;
(PID.TID 0000.0001) use3dCoriolis = /* 3-D Coriolis on/off flag */
(PID.TID 0000.0001)                   F
(PID.TID 0000.0001)     ;
(PID.TID 0000.0001) useCoriolis =  /* Coriolis on/off flag */
(PID.TID 0000.0001)                   T
(PID.TID 0000.0001)     ;
(PID.TID 0000.0001) useCDscheme =  /* CD scheme on/off flag */
(PID.TID 0000.0001)                   F
(PID.TID 0000.0001)     ;
(PID.TID 0000.0001) useEnergyConservingCoriolis= /* Flx-Form Coriolis scheme flag */
(PID.TID 0000.0001)                   F
(PID.TID 0000.0001)     ;
(PID.TID 0000.0001) useJamartWetPoints= /* Coriolis WetPoints method flag */
(PID.TID 0000.0001)                   F
(PID.TID 0000.0001)     ;
(PID.TID 0000.0001) useJamartMomAdv= /* V.I Non-linear terms Jamart flag */
(PID.TID 0000.0001)                   F
(PID.TID 0000.0001)     ;
(PID.TID 0000.0001) useAbsVorticity= /* V.I Works with f+zeta in Coriolis */
(PID.TID 0000.0001)                   T
(PID.TID 0000.0001)     ;
(PID.TID 0000.0001) selectVortScheme= /* V.I Scheme selector for Vorticity-Term */
(PID.TID 0000.0001)                       3
(PID.TID 0000.0001)    = 0 : enstrophy (Shallow-Water Eq.) conserving scheme by Sadourny, JAS 75
(PID.TID 0000.0001)    = 1 : same as 0 with modified hFac
(PID.TID 0000.0001)    = 2 : energy conserving scheme (used by Sadourny in JAS 75 paper)
(PID.TID 0000.0001)    = 3 : energy (general) and enstrophy (2D, nonDiv.) conserving scheme
(PID.TID 0000.0001)          from Sadourny (Burridge & Haseler, ECMWF Rep.4, 1977)
(PID.TID 0000.0001)     ;
(PID.TID 0000.0001) upwindVorticity= /* V.I Upwind bias vorticity flag */
(PID.TID 0000.0001)                   F
(PID.TID 0000.0001)     ;
(PID.TID 0000.0001) highOrderVorticity= /* V.I High order vort. advect. flag */
(PID.TID 0000.0001)                   F
(PID.TID 0000.0001)     ;
(PID.TID 0000.0001) upwindShear= /* V.I Upwind vertical Shear advection flag */
(PID.TID 0000.0001)                   F
(PID.TID 0000.0001)     ;
(PID.TID 0000.0001) selectKEscheme= /* V.I Kinetic Energy scheme selector */
(PID.TID 0000.0001)                       3
(PID.TID 0000.0001)     ;
(PID.TID 0000.0001) momForcing =  /* Momentum forcing on/off flag */
(PID.TID 0000.0001)                   T
(PID.TID 0000.0001)     ;
(PID.TID 0000.0001) momPressureForcing =  /* Momentum pressure term on/off flag */
(PID.TID 0000.0001)                   T
(PID.TID 0000.0001)     ;
(PID.TID 0000.0001) implicitIntGravWave= /* Implicit Internal Gravity Wave flag */
(PID.TID 0000.0001)                   F
(PID.TID 0000.0001)     ;
(PID.TID 0000.0001) staggerTimeStep =    /* Stagger time stepping on/off flag */
(PID.TID 0000.0001)                   T
(PID.TID 0000.0001)     ;
(PID.TID 0000.0001) doResetHFactors = /* reset thickness factors @ each time-step */
(PID.TID 0000.0001)                   F
(PID.TID 0000.0001)     ;
(PID.TID 0000.0001) multiDimAdvection =  /* enable/disable Multi-Dim Advection */
(PID.TID 0000.0001)                   T
(PID.TID 0000.0001)     ;
(PID.TID 0000.0001) useMultiDimAdvec =   /* Multi-Dim Advection is/is-not used */
(PID.TID 0000.0001)                   T
(PID.TID 0000.0001)     ;
(PID.TID 0000.0001) implicitDiffusion = /* Implicit Diffusion on/off flag */
(PID.TID 0000.0001)                   F
(PID.TID 0000.0001)     ;
(PID.TID 0000.0001) tempStepping =  /* Temperature equation on/off flag */
(PID.TID 0000.0001)                   T
(PID.TID 0000.0001)     ;
(PID.TID 0000.0001) tempAdvection = /* Temperature advection on/off flag */
(PID.TID 0000.0001)                   T
(PID.TID 0000.0001)     ;
(PID.TID 0000.0001) tempImplVertAdv = /* Temp. implicit vert. advection on/off */
(PID.TID 0000.0001)                   F
(PID.TID 0000.0001)     ;
(PID.TID 0000.0001) tempForcing  =  /* Temperature forcing on/off flag */
(PID.TID 0000.0001)                   T
(PID.TID 0000.0001)     ;
(PID.TID 0000.0001) addFrictionHeating= /* account for frictional heating */
(PID.TID 0000.0001)                   T
(PID.TID 0000.0001)     ;
(PID.TID 0000.0001) doThetaClimRelax = /* apply SST relaxation on/off flag */
(PID.TID 0000.0001)                   F
(PID.TID 0000.0001)     ;
(PID.TID 0000.0001) tempIsActiveTr = /* Temp. is a dynamically Active Tracer */
(PID.TID 0000.0001)                   T
(PID.TID 0000.0001)     ;
(PID.TID 0000.0001) saltStepping =  /* Salinity equation on/off flag */
(PID.TID 0000.0001)                   T
(PID.TID 0000.0001)     ;
(PID.TID 0000.0001) saltAdvection = /* Salinity advection on/off flag */
(PID.TID 0000.0001)                   T
(PID.TID 0000.0001)     ;
(PID.TID 0000.0001) saltImplVertAdv = /* Sali. implicit vert. advection on/off */
(PID.TID 0000.0001)                   F
(PID.TID 0000.0001)     ;
(PID.TID 0000.0001) saltForcing  =  /* Salinity forcing on/off flag */
(PID.TID 0000.0001)                   T
(PID.TID 0000.0001)     ;
(PID.TID 0000.0001) doSaltClimRelax = /* apply SSS relaxation on/off flag */
(PID.TID 0000.0001)                   F
(PID.TID 0000.0001)     ;
(PID.TID 0000.0001) saltIsActiveTr = /* Salt  is a dynamically Active Tracer */
(PID.TID 0000.0001)                   T
(PID.TID 0000.0001)     ;
(PID.TID 0000.0001)  readBinaryPrec = /* Precision used for reading binary files */
(PID.TID 0000.0001)                      64
(PID.TID 0000.0001)     ;
(PID.TID 0000.0001) writeBinaryPrec = /* Precision used for writing binary files */
(PID.TID 0000.0001)                      64
(PID.TID 0000.0001)     ;
(PID.TID 0000.0001)  globalFiles = /* write "global" (=not per tile) files */
(PID.TID 0000.0001)                   F
(PID.TID 0000.0001)     ;
(PID.TID 0000.0001)  useSingleCpuIO = /* only master MPI process does I/O */
(PID.TID 0000.0001)                   F
(PID.TID 0000.0001)     ;
(PID.TID 0000.0001) /* debLev[*]  : level of debug & auxiliary message printing */
(PID.TID 0000.0001) debLevZero =  0 ; /* level of disabled aux. msg printing */
(PID.TID 0000.0001)    debLevA =  1 ; /* level of minimum  aux. msg printing */
(PID.TID 0000.0001)    debLevB =  2 ; /* level of low aux. print (report read-file opening)*/
(PID.TID 0000.0001)    debLevC =  3 ; /* level of moderate debug prt (most pkgs debug msg) */
(PID.TID 0000.0001)    debLevD =  4 ; /* level of enhanced debug prt (add DEBUG_STATS prt) */
(PID.TID 0000.0001)    debLevE =  5 ; /* level of extensive debug printing */
(PID.TID 0000.0001) debugLevel =  /* select debug printing level */
(PID.TID 0000.0001)                       2
(PID.TID 0000.0001)     ;
(PID.TID 0000.0001) //
(PID.TID 0000.0001) // Elliptic solver(s) paramters ( PARM02 in namelist )
(PID.TID 0000.0001) //
(PID.TID 0000.0001) cg2dMaxIters =   /* Upper limit on 2d con. grad iterations  */
(PID.TID 0000.0001)                     200
(PID.TID 0000.0001)     ;
(PID.TID 0000.0001) cg2dChkResFreq =   /* 2d con. grad convergence test frequency */
(PID.TID 0000.0001)                       1
(PID.TID 0000.0001)     ;
(PID.TID 0000.0001) cg2dUseMinResSol= /* use cg2d last-iter(=0) / min-resid.(=1) solution */
(PID.TID 0000.0001)                       0
(PID.TID 0000.0001)     ;
(PID.TID 0000.0001) cg2dTargetResidual =   /* 2d con. grad target residual  */
(PID.TID 0000.0001)                 1.000000000000000E-07
(PID.TID 0000.0001)     ;
(PID.TID 0000.0001) cg2dTargetResWunit =   /* CG2d target residual [W units] */
(PID.TID 0000.0001)                 1.000000000000000E-17
(PID.TID 0000.0001)     ;
(PID.TID 0000.0001) cg2dPreCondFreq =   /* Freq. for updating cg2d preconditioner */
(PID.TID 0000.0001)                       1
(PID.TID 0000.0001)     ;
(PID.TID 0000.0001) useSRCGSolver =  /* use single reduction CG solver(s) */
(PID.TID 0000.0001)                   F
(PID.TID 0000.0001)     ;
(PID.TID 0000.0001) printResidualFreq = /* Freq. for printing CG residual */
(PID.TID 0000.0001)                       0
(PID.TID 0000.0001)     ;
(PID.TID 0000.0001) //
(PID.TID 0000.0001) // Time stepping paramters ( PARM03 in namelist )
(PID.TID 0000.0001) //
(PID.TID 0000.0001) deltaTMom =   /* Momentum equation timestep ( s ) */
(PID.TID 0000.0001)                 3.600000000000000E+02
(PID.TID 0000.0001)     ;
(PID.TID 0000.0001) deltaTFreeSurf = /* FreeSurface equation timestep ( s ) */
(PID.TID 0000.0001)                 3.600000000000000E+02
(PID.TID 0000.0001)     ;
(PID.TID 0000.0001) dTtracerLev =  /* Tracer equation timestep ( s ) */
(PID.TID 0000.0001)    26 @  3.600000000000000E+02              /* K =  1: 26 */
(PID.TID 0000.0001)     ;
(PID.TID 0000.0001) deltaTClock  =   /* Model clock timestep ( s ) */
(PID.TID 0000.0001)                 3.600000000000000E+02
(PID.TID 0000.0001)     ;
(PID.TID 0000.0001) cAdjFreq =   /* Convective adjustment interval ( s ) */
(PID.TID 0000.0001)                 0.000000000000000E+00
(PID.TID 0000.0001)     ;
(PID.TID 0000.0001) momForcingOutAB = /* =1: take Momentum Forcing out of Adams-Bash. stepping */
(PID.TID 0000.0001)                       1
(PID.TID 0000.0001)     ;
(PID.TID 0000.0001) tracForcingOutAB = /* =1: take T,S,pTr Forcing out of Adams-Bash. stepping */
(PID.TID 0000.0001)                       1
(PID.TID 0000.0001)     ;
(PID.TID 0000.0001) momDissip_In_AB = /* put Dissipation Tendency in Adams-Bash. stepping */
(PID.TID 0000.0001)                   T
(PID.TID 0000.0001)     ;
(PID.TID 0000.0001) doAB_onGtGs = /* apply AB on Tendencies (rather than on T,S)*/
(PID.TID 0000.0001)                   T
(PID.TID 0000.0001)     ;
(PID.TID 0000.0001) abEps =   /* Adams-Bashforth-2 stabilizing weight */
(PID.TID 0000.0001)                 1.000000000000000E-01
(PID.TID 0000.0001)     ;
(PID.TID 0000.0001) pickupStrictlyMatch= /* stop if pickup do not strictly match */
(PID.TID 0000.0001)                   T
(PID.TID 0000.0001)     ;
(PID.TID 0000.0001) nIter0   =   /* Run starting timestep number */
(PID.TID 0000.0001)                       0
(PID.TID 0000.0001)     ;
(PID.TID 0000.0001) nTimeSteps = /* Number of timesteps */
(PID.TID 0000.0001)                      40
(PID.TID 0000.0001)     ;
(PID.TID 0000.0001) nEndIter =   /* Run ending timestep number */
(PID.TID 0000.0001)                      40
(PID.TID 0000.0001)     ;
(PID.TID 0000.0001) baseTime =   /* Model base time ( s ) */
(PID.TID 0000.0001)                 0.000000000000000E+00
(PID.TID 0000.0001)     ;
(PID.TID 0000.0001) startTime =  /* Run start time ( s ) */
(PID.TID 0000.0001)                 0.000000000000000E+00
(PID.TID 0000.0001)     ;
(PID.TID 0000.0001) endTime  =   /* Integration ending time ( s ) */
(PID.TID 0000.0001)                 1.440000000000000E+04
(PID.TID 0000.0001)     ;
(PID.TID 0000.0001) pChkPtFreq = /* Permanent restart/pickup file interval ( s ) */
(PID.TID 0000.0001)                 1.555200000000000E+08
(PID.TID 0000.0001)     ;
(PID.TID 0000.0001) chkPtFreq  = /* Rolling restart/pickup file interval ( s ) */
(PID.TID 0000.0001)                 3.110400000000000E+07
(PID.TID 0000.0001)     ;
(PID.TID 0000.0001) pickup_write_mdsio =   /* Model IO flag. */
(PID.TID 0000.0001)                   T
(PID.TID 0000.0001)     ;
(PID.TID 0000.0001) pickup_read_mdsio =   /* Model IO flag. */
(PID.TID 0000.0001)                   T
(PID.TID 0000.0001)     ;
(PID.TID 0000.0001) pickup_write_immed =   /* Model IO flag. */
(PID.TID 0000.0001)                   F
(PID.TID 0000.0001)     ;
(PID.TID 0000.0001) writePickupAtEnd =   /* Model IO flag. */
(PID.TID 0000.0001)                   T
(PID.TID 0000.0001)     ;
(PID.TID 0000.0001) dumpFreq =   /* Model state write out interval ( s ). */
(PID.TID 0000.0001)                 3.110400000000000E+07
(PID.TID 0000.0001)     ;
(PID.TID 0000.0001) dumpInitAndLast= /* write out Initial & Last iter. model state */
(PID.TID 0000.0001)                   T
(PID.TID 0000.0001)     ;
(PID.TID 0000.0001) snapshot_mdsio =   /* Model IO flag. */
(PID.TID 0000.0001)                   T
(PID.TID 0000.0001)     ;
(PID.TID 0000.0001) monitorFreq =   /* Monitor output interval ( s ). */
(PID.TID 0000.0001)                 1.000000000000000E+00
(PID.TID 0000.0001)     ;
(PID.TID 0000.0001) monitorSelect = /* select group of variables to monitor */
(PID.TID 0000.0001)                       2
(PID.TID 0000.0001)     ;
(PID.TID 0000.0001) monitor_stdio =   /* Model IO flag. */
(PID.TID 0000.0001)                   T
(PID.TID 0000.0001)     ;
(PID.TID 0000.0001) externForcingPeriod =   /* forcing period (s) */
(PID.TID 0000.0001)                 0.000000000000000E+00
(PID.TID 0000.0001)     ;
(PID.TID 0000.0001) externForcingCycle =   /* period of the cyle (s). */
(PID.TID 0000.0001)                 0.000000000000000E+00
(PID.TID 0000.0001)     ;
(PID.TID 0000.0001) tauThetaClimRelax =   /* relaxation time scale (s) */
(PID.TID 0000.0001)                 0.000000000000000E+00
(PID.TID 0000.0001)     ;
(PID.TID 0000.0001) tauSaltClimRelax =   /* relaxation time scale (s) */
(PID.TID 0000.0001)                 0.000000000000000E+00
(PID.TID 0000.0001)     ;
(PID.TID 0000.0001) latBandClimRelax =   /* max. Lat. where relaxation */
(PID.TID 0000.0001)                 1.800000000000000E+02
(PID.TID 0000.0001)     ;
(PID.TID 0000.0001) //
(PID.TID 0000.0001) // Gridding paramters ( PARM04 in namelist )
(PID.TID 0000.0001) //
(PID.TID 0000.0001) usingCartesianGrid = /* Cartesian coordinates flag ( True/False ) */
(PID.TID 0000.0001)                   F
(PID.TID 0000.0001)     ;
(PID.TID 0000.0001) usingCylindricalGrid = /* Cylindrical coordinates flag ( True/False ) */
(PID.TID 0000.0001)                   F
(PID.TID 0000.0001)     ;
(PID.TID 0000.0001) usingSphericalPolarGrid = /* Spherical coordinates flag ( True/False ) */
(PID.TID 0000.0001)                   F
(PID.TID 0000.0001)     ;
(PID.TID 0000.0001) usingCurvilinearGrid = /* Curvilinear coordinates flag ( True/False ) */
(PID.TID 0000.0001)                   T
(PID.TID 0000.0001)     ;
(PID.TID 0000.0001) selectSigmaCoord = /* Hybrid-Sigma Vert. Coordinate option */
(PID.TID 0000.0001)                       0
(PID.TID 0000.0001)     ;
(PID.TID 0000.0001) Ro_SeaLevel = /* r(1) ( units of r == Pa ) */
(PID.TID 0000.0001)                 1.000000000000000E+05
(PID.TID 0000.0001)     ;
(PID.TID 0000.0001) rSigmaBnd = /* r/sigma transition ( units of r == Pa ) */
(PID.TID 0000.0001)                 1.234567000000000E+05
(PID.TID 0000.0001)     ;
(PID.TID 0000.0001) rkSign =   /* index orientation relative to vertical coordinate */
(PID.TID 0000.0001)                -1.000000000000000E+00
(PID.TID 0000.0001)     ;
(PID.TID 0000.0001) gravitySign = /* gravity orientation relative to vertical coordinate */
(PID.TID 0000.0001)                 1.000000000000000E+00
(PID.TID 0000.0001)     ;
(PID.TID 0000.0001) mass2rUnit = /* convert mass per unit area [kg/m2] to r-units [Pa] */
(PID.TID 0000.0001)                 9.800000000000001E+00
(PID.TID 0000.0001)     ;
(PID.TID 0000.0001) rUnit2mass = /* convert r-units [Pa] to mass per unit area [kg/m2] */
(PID.TID 0000.0001)                 1.020408163265306E-01
(PID.TID 0000.0001)     ;
(PID.TID 0000.0001) drC =   /* C spacing ( units of r ) */
(PID.TID 0000.0001)                 7.500000000000000E+02,      /* K =  1 */
(PID.TID 0000.0001)                 1.811000000000000E+03,      /* K =  2 */
(PID.TID 0000.0001)                 2.561000000000000E+03,      /* K =  3 */
(PID.TID 0000.0001)                 3.621000000000000E+03,      /* K =  4 */
(PID.TID 0000.0001)                 5.121000000000000E+03,      /* K =  5 */
(PID.TID 0000.0001)                 6.900000000000000E+03,      /* K =  6 */
(PID.TID 0000.0001)                 8.450000000000000E+03,      /* K =  7 */
(PID.TID 0000.0001)                 9.250000000000000E+03,      /* K =  8 */
(PID.TID 0000.0001)                 9.340000000000000E+03,      /* K =  9 */
(PID.TID 0000.0001)                 8.840000000000000E+03,      /* K = 10 */
(PID.TID 0000.0001)                 7.690000000000000E+03,      /* K = 11 */
(PID.TID 0000.0001)                 6.390000000000000E+03,      /* K = 12 */
(PID.TID 0000.0001)                 5.310000000000000E+03,      /* K = 13 */
(PID.TID 0000.0001)                 4.412000000000000E+03,      /* K = 14 */
(PID.TID 0000.0001)                 3.666000000000000E+03,      /* K = 15 */
(PID.TID 0000.0001)                 3.047000000000000E+03,      /* K = 16 */
(PID.TID 0000.0001)                 2.532000000000000E+03,      /* K = 17 */
(PID.TID 0000.0001)                 2.104000000000000E+03,      /* K = 18 */
(PID.TID 0000.0001)                 1.748000000000000E+03,      /* K = 19 */
(PID.TID 0000.0001)                 1.452000000000000E+03,      /* K = 20 */
(PID.TID 0000.0001)                 1.207000000000000E+03,      /* K = 21 */
(PID.TID 0000.0001)                 1.003000000000000E+03,      /* K = 22 */
(PID.TID 0000.0001)                 8.330000000000000E+02,      /* K = 23 */
(PID.TID 0000.0001)                 6.920000000000000E+02,      /* K = 24 */
(PID.TID 0000.0001)                 5.750000000000000E+02,      /* K = 25 */
(PID.TID 0000.0001)                 4.780000000000000E+02,      /* K = 26 */
(PID.TID 0000.0001)                 2.170000000000000E+02       /* K = 27 */
(PID.TID 0000.0001)     ;
(PID.TID 0000.0001) drF =   /* W spacing ( units of r ) */
(PID.TID 0000.0001)                 1.500000000000000E+03,      /* K =  1 */
(PID.TID 0000.0001)                 2.122000000000000E+03,      /* K =  2 */
(PID.TID 0000.0001)                 3.000000000000000E+03,      /* K =  3 */
(PID.TID 0000.0001)                 4.242000000000000E+03,      /* K =  4 */
(PID.TID 0000.0001)                 6.000000000000000E+03,      /* K =  5 */
(PID.TID 0000.0001)                 7.800000000000000E+03,      /* K =  6 */
(PID.TID 0000.0001)                 9.100000000000000E+03,      /* K =  7 */
(PID.TID 0000.0001)                 9.400000000000000E+03,      /* K =  8 */
(PID.TID 0000.0001)                 9.280000000000000E+03,      /* K =  9 */
(PID.TID 0000.0001)                 8.400000000000000E+03,      /* K = 10 */
(PID.TID 0000.0001)                 6.980000000000000E+03,      /* K = 11 */
(PID.TID 0000.0001)                 5.800000000000000E+03,      /* K = 12 */
(PID.TID 0000.0001)                 4.820000000000000E+03,      /* K = 13 */
(PID.TID 0000.0001)                 4.004000000000000E+03,      /* K = 14 */
(PID.TID 0000.0001)                 3.328000000000000E+03,      /* K = 15 */
(PID.TID 0000.0001)                 2.766000000000000E+03,      /* K = 16 */
(PID.TID 0000.0001)                 2.298000000000000E+03,      /* K = 17 */
(PID.TID 0000.0001)                 1.910000000000000E+03,      /* K = 18 */
(PID.TID 0000.0001)                 1.586000000000000E+03,      /* K = 19 */
(PID.TID 0000.0001)                 1.318000000000000E+03,      /* K = 20 */
(PID.TID 0000.0001)                 1.096000000000000E+03,      /* K = 21 */
(PID.TID 0000.0001)                 9.100000000000000E+02,      /* K = 22 */
(PID.TID 0000.0001)                 7.560000000000000E+02,      /* K = 23 */
(PID.TID 0000.0001)                 6.280000000000000E+02,      /* K = 24 */
(PID.TID 0000.0001)                 5.220000000000000E+02,      /* K = 25 */
(PID.TID 0000.0001)                 4.340000000000000E+02       /* K = 26 */
(PID.TID 0000.0001)     ;
(PID.TID 0000.0001) radius_fromHorizGrid = /* sphere Radius of input horiz. grid */
(PID.TID 0000.0001)                 6.370000000000000E+06
(PID.TID 0000.0001)     ;
(PID.TID 0000.0001) rSphere =  /* Radius ( ignored - cartesian, m - spherical ) */
(PID.TID 0000.0001)                 6.370000000000000E+06
(PID.TID 0000.0001)     ;
(PID.TID 0000.0001) deepAtmosphere = /* Deep/Shallow Atmosphere flag (True/False) */
(PID.TID 0000.0001)                   F
(PID.TID 0000.0001)     ;
(PID.TID 0000.0001) xC =  /* xC(:,1,:,1) : P-point X coord ( deg. or m if cartesian) */
(PID.TID 0000.0001)                -4.439521994760536E+01,      /* I =  1 */
(PID.TID 0000.0001)                -4.295641272275883E+01,      /* I =  2 */
(PID.TID 0000.0001)                -4.122055553388957E+01,      /* I =  3 */
(PID.TID 0000.0001)      . . .
(PID.TID 0000.0001)                 8.070819219728060E+01,      /* I = 46 */
(PID.TID 0000.0001)                 8.439652466417766E+01,      /* I = 47 */
(PID.TID 0000.0001)                 8.812739148696656E+01,      /* I = 48 */
(PID.TID 0000.0001)                 9.187260851303344E+01,      /* I = 49 */
(PID.TID 0000.0001)                 9.560347533582234E+01,      /* I = 50 */
(PID.TID 0000.0001)                 9.929180780271940E+01,      /* I = 51 */
(PID.TID 0000.0001)      . . .
(PID.TID 0000.0001)                 1.321863035748696E+02,      /* I = 94 */
(PID.TID 0000.0001)                 1.337919453120370E+02,      /* I = 95 */
(PID.TID 0000.0001)                 1.350000000000000E+02,      /* I = 96 */
(PID.TID 0000.0001)                 1.356047800523947E+02,      /* I = 97 */
(PID.TID 0000.0001)                 1.358367907661329E+02,      /* I = 98 */
(PID.TID 0000.0001)                 1.359720382181193E+02,      /* I = 99 */
(PID.TID 0000.0001)      . . .
(PID.TID 0000.0001)                -1.336511021209287E+02,      /* I =142 */
(PID.TID 0000.0001)                -1.336469399409420E+02,      /* I =143 */
(PID.TID 0000.0001)                -1.336449032499283E+02,      /* I =144 */
(PID.TID 0000.0001)                -1.336449032499283E+02,      /* I =145 */
(PID.TID 0000.0001)                -1.336469399409420E+02,      /* I =146 */
(PID.TID 0000.0001)                -1.336511021209287E+02,      /* I =147 */
(PID.TID 0000.0001)      . . .
(PID.TID 0000.0001)                 1.378136964251304E+02,      /* I =190 */
(PID.TID 0000.0001)                 1.362080546879630E+02,      /* I =191 */
(PID.TID 0000.0001)                 1.350000000000000E+02       /* I =192 */
(PID.TID 0000.0001)     ;
(PID.TID 0000.0001) yC =  /* yC(1,:,1,:) : P-point Y coord ( deg. or m if cartesian) */
(PID.TID 0000.0001)                -3.497677942598243E+01,      /* J =  1 */
(PID.TID 0000.0001)                -3.374005967394886E+01,      /* J =  2 */
(PID.TID 0000.0001)                -3.220655175667454E+01,      /* J =  3 */
(PID.TID 0000.0001)                -3.045756348838641E+01,      /* J =  4 */
(PID.TID 0000.0001)                -2.853728129852918E+01,      /* J =  5 */
(PID.TID 0000.0001)                -2.647426640173173E+01,      /* J =  6 */
(PID.TID 0000.0001)                -2.428936657094636E+01,      /* J =  7 */
(PID.TID 0000.0001)                -2.199915808312262E+01,      /* J =  8 */
(PID.TID 0000.0001)                -1.961768597440146E+01,      /* J =  9 */
(PID.TID 0000.0001)                -1.715743888281371E+01,      /* J = 10 */
(PID.TID 0000.0001)                -1.462993396899330E+01,      /* J = 11 */
(PID.TID 0000.0001)                -1.204608340464756E+01,      /* J = 12 */
(PID.TID 0000.0001)                -9.416429130284818E+00,      /* J = 13 */
(PID.TID 0000.0001)                -6.751293662992216E+00,      /* J = 14 */
(PID.TID 0000.0001)                -4.060875511835959E+00,      /* J = 15 */
(PID.TID 0000.0001)                -1.355307764409121E+00,      /* J = 16 */
(PID.TID 0000.0001)                 1.355307764409121E+00,      /* J = 17 */
(PID.TID 0000.0001)                 4.060875511835959E+00,      /* J = 18 */
(PID.TID 0000.0001)                 6.751293662992216E+00,      /* J = 19 */
(PID.TID 0000.0001)                 9.416429130284818E+00,      /* J = 20 */
(PID.TID 0000.0001)                 1.204608340464756E+01,      /* J = 21 */
(PID.TID 0000.0001)                 1.462993396899330E+01,      /* J = 22 */
(PID.TID 0000.0001)                 1.715743888281371E+01,      /* J = 23 */
(PID.TID 0000.0001)                 1.961768597440146E+01,      /* J = 24 */
(PID.TID 0000.0001)                 2.199915808312262E+01,      /* J = 25 */
(PID.TID 0000.0001)                 2.428936657094636E+01,      /* J = 26 */
(PID.TID 0000.0001)                 2.647426640173173E+01,      /* J = 27 */
(PID.TID 0000.0001)                 2.853728129852918E+01,      /* J = 28 */
(PID.TID 0000.0001)                 3.045756348838641E+01,      /* J = 29 */
(PID.TID 0000.0001)                 3.220655175667454E+01,      /* J = 30 */
(PID.TID 0000.0001)                 3.374005967394886E+01,      /* J = 31 */
(PID.TID 0000.0001)                 3.497677942598243E+01       /* J = 32 */
(PID.TID 0000.0001)     ;
(PID.TID 0000.0001) rcoord = /* P-point R coordinate (  units of r ) */
(PID.TID 0000.0001)                 9.925000000000000E+04,      /* K =  1 */
(PID.TID 0000.0001)                 9.743900000000000E+04,      /* K =  2 */
(PID.TID 0000.0001)                 9.487800000000000E+04,      /* K =  3 */
(PID.TID 0000.0001)                 9.125700000000000E+04,      /* K =  4 */
(PID.TID 0000.0001)                 8.613600000000000E+04,      /* K =  5 */
(PID.TID 0000.0001)                 7.923600000000000E+04,      /* K =  6 */
(PID.TID 0000.0001)                 7.078600000000000E+04,      /* K =  7 */
(PID.TID 0000.0001)                 6.153600000000000E+04,      /* K =  8 */
(PID.TID 0000.0001)                 5.219600000000000E+04,      /* K =  9 */
(PID.TID 0000.0001)                 4.335600000000000E+04,      /* K = 10 */
(PID.TID 0000.0001)                 3.566600000000000E+04,      /* K = 11 */
(PID.TID 0000.0001)                 2.927600000000000E+04,      /* K = 12 */
(PID.TID 0000.0001)                 2.396600000000000E+04,      /* K = 13 */
(PID.TID 0000.0001)                 1.955400000000000E+04,      /* K = 14 */
(PID.TID 0000.0001)                 1.588800000000000E+04,      /* K = 15 */
(PID.TID 0000.0001)                 1.284100000000000E+04,      /* K = 16 */
(PID.TID 0000.0001)                 1.030900000000000E+04,      /* K = 17 */
(PID.TID 0000.0001)                 8.205000000000000E+03,      /* K = 18 */
(PID.TID 0000.0001)                 6.457000000000000E+03,      /* K = 19 */
(PID.TID 0000.0001)                 5.005000000000000E+03,      /* K = 20 */
(PID.TID 0000.0001)                 3.798000000000000E+03,      /* K = 21 */
(PID.TID 0000.0001)                 2.795000000000000E+03,      /* K = 22 */
(PID.TID 0000.0001)                 1.962000000000000E+03,      /* K = 23 */
(PID.TID 0000.0001)                 1.270000000000000E+03,      /* K = 24 */
(PID.TID 0000.0001)                 6.950000000000000E+02,      /* K = 25 */
(PID.TID 0000.0001)                 2.170000000000000E+02       /* K = 26 */
(PID.TID 0000.0001)     ;
(PID.TID 0000.0001) rF =   /* W-Interf. R coordinate (  units of r ) */
(PID.TID 0000.0001)                 1.000000000000000E+05,      /* K =  1 */
(PID.TID 0000.0001)                 9.850000000000000E+04,      /* K =  2 */
(PID.TID 0000.0001)                 9.637800000000000E+04,      /* K =  3 */
(PID.TID 0000.0001)                 9.337800000000000E+04,      /* K =  4 */
(PID.TID 0000.0001)                 8.913600000000000E+04,      /* K =  5 */
(PID.TID 0000.0001)                 8.313600000000000E+04,      /* K =  6 */
(PID.TID 0000.0001)                 7.533600000000000E+04,      /* K =  7 */
(PID.TID 0000.0001)                 6.623600000000000E+04,      /* K =  8 */
(PID.TID 0000.0001)                 5.683600000000000E+04,      /* K =  9 */
(PID.TID 0000.0001)                 4.755600000000000E+04,      /* K = 10 */
(PID.TID 0000.0001)                 3.915600000000000E+04,      /* K = 11 */
(PID.TID 0000.0001)                 3.217600000000000E+04,      /* K = 12 */
(PID.TID 0000.0001)                 2.637600000000000E+04,      /* K = 13 */
(PID.TID 0000.0001)                 2.155600000000000E+04,      /* K = 14 */
(PID.TID 0000.0001)                 1.755200000000000E+04,      /* K = 15 */
(PID.TID 0000.0001)                 1.422400000000000E+04,      /* K = 16 */
(PID.TID 0000.0001)                 1.145800000000000E+04,      /* K = 17 */
(PID.TID 0000.0001)                 9.160000000000000E+03,      /* K = 18 */
(PID.TID 0000.0001)                 7.250000000000000E+03,      /* K = 19 */
(PID.TID 0000.0001)                 5.664000000000000E+03,      /* K = 20 */
(PID.TID 0000.0001)                 4.346000000000000E+03,      /* K = 21 */
(PID.TID 0000.0001)                 3.250000000000000E+03,      /* K = 22 */
(PID.TID 0000.0001)                 2.340000000000000E+03,      /* K = 23 */
(PID.TID 0000.0001)                 1.584000000000000E+03,      /* K = 24 */
(PID.TID 0000.0001)                 9.560000000000000E+02,      /* K = 25 */
(PID.TID 0000.0001)                 4.340000000000000E+02,      /* K = 26 */
(PID.TID 0000.0001)                 0.000000000000000E+00       /* K = 27 */
(PID.TID 0000.0001)     ;
(PID.TID 0000.0001) deepFacC = /* deep-model grid factor @ cell-Center (-) */
(PID.TID 0000.0001)    26 @  1.000000000000000E+00              /* K =  1: 26 */
(PID.TID 0000.0001)     ;
(PID.TID 0000.0001) deepFacF = /* deep-model grid factor @ W-Interface (-) */
(PID.TID 0000.0001)    27 @  1.000000000000000E+00              /* K =  1: 27 */
(PID.TID 0000.0001)     ;
(PID.TID 0000.0001) rVel2wUnit = /* convert units: rVel -> wSpeed (=1 if z-coord)*/
(PID.TID 0000.0001)                 8.643418775510203E-02,      /* K =  1 */
(PID.TID 0000.0001)                 8.738714281594749E-02,      /* K =  2 */
(PID.TID 0000.0001)                 8.880228539413697E-02,      /* K =  3 */
(PID.TID 0000.0001)                 9.089242929019774E-02,      /* K =  4 */
(PID.TID 0000.0001)                 9.405693947589525E-02,      /* K =  5 */
(PID.TID 0000.0001)                 9.902423118195600E-02,      /* K =  6 */
(PID.TID 0000.0001)                 1.064768002018922E-01,      /* K =  7 */
(PID.TID 0000.0001)                 1.170463961122242E-01,      /* K =  8 */
(PID.TID 0000.0001)                 1.310066026003325E-01,      /* K =  9 */
(PID.TID 0000.0001)                 1.493938920168942E-01,      /* K = 10 */
(PID.TID 0000.0001)                 1.725289602831169E-01,      /* K = 11 */
(PID.TID 0000.0001)                 2.002474459407474E-01,      /* K = 12 */
(PID.TID 0000.0001)                 2.343614310665001E-01,      /* K = 13 */
(PID.TID 0000.0001)                 2.776669889631084E-01,      /* K = 14 */
(PID.TID 0000.0001)                 3.350138715309565E-01,      /* K = 15 */
(PID.TID 0000.0001)                 4.115302688812186E-01,      /* K = 16 */
(PID.TID 0000.0001)                 5.108941627115936E-01,      /* K = 17 */
(PID.TID 0000.0001)                 6.391247399573892E-01,      /* K = 18 */
(PID.TID 0000.0001)                 8.075182125562436E-01,      /* K = 19 */
(PID.TID 0000.0001)                 1.033823213211920E+00,      /* K = 20 */
(PID.TID 0000.0001)                 1.347773276112891E+00,      /* K = 21 */
(PID.TID 0000.0001)                 1.802919824777024E+00,      /* K = 22 */
(PID.TID 0000.0001)                 2.505981061091403E+00,      /* K = 23 */
(PID.TID 0000.0001)                 3.708894241534945E+00,      /* K = 24 */
(PID.TID 0000.0001)                 6.181002019845741E+00,      /* K = 25 */
(PID.TID 0000.0001)                 1.412649152982495E+01,      /* K = 26 */
(PID.TID 0000.0001)                 1.000000000000000E+00       /* K = 27 */
(PID.TID 0000.0001)     ;
(PID.TID 0000.0001) wUnit2rVel = /* convert units: wSpeed -> rVel (=1 if z-coord)*/
(PID.TID 0000.0001)                 1.156949612152712E+01,      /* K =  1 */
(PID.TID 0000.0001)                 1.144333099556961E+01,      /* K =  2 */
(PID.TID 0000.0001)                 1.126097144416537E+01,      /* K =  3 */
(PID.TID 0000.0001)                 1.100201642545211E+01,      /* K =  4 */
(PID.TID 0000.0001)                 1.063185774034545E+01,      /* K =  5 */
(PID.TID 0000.0001)                 1.009853838867489E+01,      /* K =  6 */
(PID.TID 0000.0001)                 9.391717238909184E+00,      /* K =  7 */
(PID.TID 0000.0001)                 8.543620591625897E+00,      /* K =  8 */
(PID.TID 0000.0001)                 7.633203061152140E+00,      /* K =  9 */
(PID.TID 0000.0001)                 6.693714090311771E+00,      /* K = 10 */
(PID.TID 0000.0001)                 5.796128362212453E+00,      /* K = 11 */
(PID.TID 0000.0001)                 4.993821495710346E+00,      /* K = 12 */
(PID.TID 0000.0001)                 4.266913695864273E+00,      /* K = 13 */
(PID.TID 0000.0001)                 3.601436395929884E+00,      /* K = 14 */
(PID.TID 0000.0001)                 2.984951027341554E+00,      /* K = 15 */
(PID.TID 0000.0001)                 2.429954916119751E+00,      /* K = 16 */
(PID.TID 0000.0001)                 1.957352565338495E+00,      /* K = 17 */
(PID.TID 0000.0001)                 1.564639791704309E+00,      /* K = 18 */
(PID.TID 0000.0001)                 1.238362162550421E+00,      /* K = 19 */
(PID.TID 0000.0001)                 9.672833683944502E-01,      /* K = 20 */
(PID.TID 0000.0001)                 7.419645557033876E-01,      /* K = 21 */
(PID.TID 0000.0001)                 5.546558345286792E-01,      /* K = 22 */
(PID.TID 0000.0001)                 3.990453142389196E-01,      /* K = 23 */
(PID.TID 0000.0001)                 2.696221393431119E-01,      /* K = 24 */
(PID.TID 0000.0001)                 1.617860658820747E-01,      /* K = 25 */
(PID.TID 0000.0001)                 7.078898521184275E-02,      /* K = 26 */
(PID.TID 0000.0001)                 1.000000000000000E+00       /* K = 27 */
(PID.TID 0000.0001)     ;
(PID.TID 0000.0001) dBdrRef = /* Vertical grad. of reference buoyancy [(m/s/r)^2] */
(PID.TID 0000.0001)                 0.000000000000000E+00,      /* K =  1 */
(PID.TID 0000.0001)                 1.604020822972663E-07,      /* K =  2 */
(PID.TID 0000.0001)                 2.305314669656972E-07,      /* K =  3 */
(PID.TID 0000.0001)                 1.669031556286163E-07,      /* K =  4 */
(PID.TID 0000.0001)                 2.443043384715506E-07,      /* K =  5 */
(PID.TID 0000.0001)                 2.860066576999341E-07,      /* K =  6 */
(PID.TID 0000.0001)                 2.921875837384485E-07,      /* K =  7 */
(PID.TID 0000.0001)                 3.755074484194814E-07,      /* K =  8 */
(PID.TID 0000.0001)                 5.066322497832424E-07,      /* K =  9 */
(PID.TID 0000.0001)                 7.166887707647536E-07,      /* K = 10 */
(PID.TID 0000.0001)                 1.306741577704211E-06,      /* K = 11 */
(PID.TID 0000.0001)                 3.518055907999274E-06,      /* K = 12 */
(PID.TID 0000.0001)                 8.225060034419378E-06,      /* K = 13 */
(PID.TID 0000.0001)                 1.937860091746120E-05,      /* K = 14 */
(PID.TID 0000.0001)                 4.456361509018920E-05,      /* K = 15 */
(PID.TID 0000.0001)                 8.004656631735151E-05,      /* K = 16 */
(PID.TID 0000.0001)                 1.235417107379588E-04,      /* K = 17 */
(PID.TID 0000.0001)                 1.931534961382523E-04,      /* K = 18 */
(PID.TID 0000.0001)                 3.077255424266486E-04,      /* K = 19 */
(PID.TID 0000.0001)                 5.060735888621455E-04,      /* K = 20 */
(PID.TID 0000.0001)                 8.577447781720473E-04,      /* K = 21 */
(PID.TID 0000.0001)                 1.533315559624654E-03,      /* K = 22 */
(PID.TID 0000.0001)                 2.960876155175189E-03,      /* K = 23 */
(PID.TID 0000.0001)                 6.490610232038748E-03,      /* K = 24 */
(PID.TID 0000.0001)                 1.807701670627409E-02,      /* K = 25 */
(PID.TID 0000.0001)                 9.817506062475811E-02       /* K = 26 */
(PID.TID 0000.0001)     ;
(PID.TID 0000.0001) rotateGrid = /* use rotated grid ( True/False ) */
(PID.TID 0000.0001)                   F
(PID.TID 0000.0001)     ;
(PID.TID 0000.0001) phiEuler = /* Euler angle, rotation about original z-coordinate [rad] */
(PID.TID 0000.0001)                 0.000000000000000E+00
(PID.TID 0000.0001)     ;
(PID.TID 0000.0001) thetaEuler = /* Euler angle, rotation about new x-coordinate [rad] */
(PID.TID 0000.0001)                 0.000000000000000E+00
(PID.TID 0000.0001)     ;
(PID.TID 0000.0001) psiEuler = /* Euler angle, rotation about new z-coordinate [rad] */
(PID.TID 0000.0001)                 0.000000000000000E+00
(PID.TID 0000.0001)     ;
(PID.TID 0000.0001) dxF =  /* dxF(:,1,:,1) ( units: m ) */
(PID.TID 0000.0001)                 1.202082051331828E+05,      /* I =  1 */
(PID.TID 0000.0001)                 1.563594089971120E+05,      /* I =  2 */
(PID.TID 0000.0001)                 1.835530058121492E+05,      /* I =  3 */
(PID.TID 0000.0001)      . . .
(PID.TID 0000.0001)                 2.978501920522794E+05,      /* I = 46 */
(PID.TID 0000.0001)                 3.000967749619962E+05,      /* I = 47 */
(PID.TID 0000.0001)                 3.012190981969055E+05,      /* I = 48 */
(PID.TID 0000.0001)                 3.012190981969055E+05,      /* I = 49 */
(PID.TID 0000.0001)                 3.000967749619962E+05,      /* I = 50 */
(PID.TID 0000.0001)                 2.978501920522794E+05,      /* I = 51 */
(PID.TID 0000.0001)      . . .
(PID.TID 0000.0001)                 1.835530058121492E+05,      /* I = 94 */
(PID.TID 0000.0001)                 1.563594089971120E+05,      /* I = 95 */
(PID.TID 0000.0001)                 1.202082051331828E+05,      /* I = 96 */
(PID.TID 0000.0001)                 1.202082051331828E+05,      /* I = 97 */
(PID.TID 0000.0001)                 1.563594089971120E+05,      /* I = 98 */
(PID.TID 0000.0001)                 1.835530058121492E+05,      /* I = 99 */
(PID.TID 0000.0001)      . . .
(PID.TID 0000.0001)                 2.978501920522794E+05,      /* I =142 */
(PID.TID 0000.0001)                 3.000967749619962E+05,      /* I =143 */
(PID.TID 0000.0001)                 3.012190981969055E+05,      /* I =144 */
(PID.TID 0000.0001)                 3.012190981969055E+05,      /* I =145 */
(PID.TID 0000.0001)                 3.000967749619962E+05,      /* I =146 */
(PID.TID 0000.0001)                 2.978501920522794E+05,      /* I =147 */
(PID.TID 0000.0001)      . . .
(PID.TID 0000.0001)                 1.835530058121492E+05,      /* I =190 */
(PID.TID 0000.0001)                 1.563594089971120E+05,      /* I =191 */
(PID.TID 0000.0001)                 1.202082051331828E+05       /* I =192 */
(PID.TID 0000.0001)     ;
(PID.TID 0000.0001) dxF =  /* dxF(1,:,1,:) ( units: m ) */
(PID.TID 0000.0001)                 1.202082051331828E+05,      /* J =  1 */
(PID.TID 0000.0001)                 1.572908084538706E+05,      /* J =  2 */
(PID.TID 0000.0001)                 1.840412227747703E+05,      /* J =  3 */
(PID.TID 0000.0001)                 2.048868197919576E+05,      /* J =  4 */
(PID.TID 0000.0001)                 2.220405216043041E+05,      /* J =  5 */
(PID.TID 0000.0001)                 2.365892017348392E+05,      /* J =  6 */
(PID.TID 0000.0001)                 2.491250781852558E+05,      /* J =  7 */
(PID.TID 0000.0001)                 2.599949918261881E+05,      /* J =  8 */
(PID.TID 0000.0001)                 2.694110134598581E+05,      /* J =  9 */
(PID.TID 0000.0001)                 2.775055554645015E+05,      /* J = 10 */
(PID.TID 0000.0001)                 2.843615645344775E+05,      /* J = 11 */
(PID.TID 0000.0001)                 2.900303768613599E+05,      /* J = 12 */
(PID.TID 0000.0001)                 2.945429307892709E+05,      /* J = 13 */
(PID.TID 0000.0001)                 2.979171143158405E+05,      /* J = 14 */
(PID.TID 0000.0001)                 3.001626787528886E+05,      /* J = 15 */
(PID.TID 0000.0001)     2 @  3.012844832048790E+05,             /* J = 16: 17 */
(PID.TID 0000.0001)                 3.001626787528886E+05,      /* J = 18 */
(PID.TID 0000.0001)                 2.979171143158405E+05,      /* J = 19 */
(PID.TID 0000.0001)                 2.945429307892709E+05,      /* J = 20 */
(PID.TID 0000.0001)                 2.900303768613599E+05,      /* J = 21 */
(PID.TID 0000.0001)                 2.843615645344775E+05,      /* J = 22 */
(PID.TID 0000.0001)                 2.775055554645015E+05,      /* J = 23 */
(PID.TID 0000.0001)                 2.694110134598581E+05,      /* J = 24 */
(PID.TID 0000.0001)                 2.599949918261881E+05,      /* J = 25 */
(PID.TID 0000.0001)                 2.491250781852558E+05,      /* J = 26 */
(PID.TID 0000.0001)                 2.365892017348392E+05,      /* J = 27 */
(PID.TID 0000.0001)                 2.220405216043041E+05,      /* J = 28 */
(PID.TID 0000.0001)                 2.048868197919576E+05,      /* J = 29 */
(PID.TID 0000.0001)                 1.840412227747703E+05,      /* J = 30 */
(PID.TID 0000.0001)                 1.572908084538706E+05,      /* J = 31 */
(PID.TID 0000.0001)                 1.202082051331828E+05       /* J = 32 */
(PID.TID 0000.0001)     ;
(PID.TID 0000.0001) dyF =  /* dyF(:,1,:,1) ( units: m ) */
(PID.TID 0000.0001)                 1.202082051331828E+05,      /* I =  1 */
(PID.TID 0000.0001)                 1.572908084538706E+05,      /* I =  2 */
(PID.TID 0000.0001)                 1.840412227747703E+05,      /* I =  3 */
(PID.TID 0000.0001)      . . .
(PID.TID 0000.0001)                 2.979171143158405E+05,      /* I = 46 */
(PID.TID 0000.0001)                 3.001626787528886E+05,      /* I = 47 */
(PID.TID 0000.0001)                 3.012844832048790E+05,      /* I = 48 */
(PID.TID 0000.0001)                 3.012844832048790E+05,      /* I = 49 */
(PID.TID 0000.0001)                 3.001626787528886E+05,      /* I = 50 */
(PID.TID 0000.0001)                 2.979171143158405E+05,      /* I = 51 */
(PID.TID 0000.0001)      . . .
(PID.TID 0000.0001)                 1.840412227747703E+05,      /* I = 94 */
(PID.TID 0000.0001)                 1.572908084538706E+05,      /* I = 95 */
(PID.TID 0000.0001)                 1.202082051331828E+05,      /* I = 96 */
(PID.TID 0000.0001)                 1.202082051331828E+05,      /* I = 97 */
(PID.TID 0000.0001)                 1.572908084538706E+05,      /* I = 98 */
(PID.TID 0000.0001)                 1.840412227747703E+05,      /* I = 99 */
(PID.TID 0000.0001)      . . .
(PID.TID 0000.0001)                 2.979171143158405E+05,      /* I =142 */
(PID.TID 0000.0001)                 3.001626787528886E+05,      /* I =143 */
(PID.TID 0000.0001)                 3.012844832048790E+05,      /* I =144 */
(PID.TID 0000.0001)                 3.012844832048790E+05,      /* I =145 */
(PID.TID 0000.0001)                 3.001626787528886E+05,      /* I =146 */
(PID.TID 0000.0001)                 2.979171143158405E+05,      /* I =147 */
(PID.TID 0000.0001)      . . .
(PID.TID 0000.0001)                 1.840412227747703E+05,      /* I =190 */
(PID.TID 0000.0001)                 1.572908084538706E+05,      /* I =191 */
(PID.TID 0000.0001)                 1.202082051331828E+05       /* I =192 */
(PID.TID 0000.0001)     ;
(PID.TID 0000.0001) dyF =  /* dyF(1,:,1,:) ( units: m ) */
(PID.TID 0000.0001)                 1.202082051331828E+05,      /* J =  1 */
(PID.TID 0000.0001)                 1.563594089971120E+05,      /* J =  2 */
(PID.TID 0000.0001)                 1.835530058121492E+05,      /* J =  3 */
(PID.TID 0000.0001)                 2.045883481718707E+05,      /* J =  4 */
(PID.TID 0000.0001)                 2.218350349844185E+05,      /* J =  5 */
(PID.TID 0000.0001)                 2.364352994647058E+05,      /* J =  6 */
(PID.TID 0000.0001)                 2.490022710862746E+05,      /* J =  7 */
(PID.TID 0000.0001)                 2.598919724358304E+05,      /* J =  8 */
(PID.TID 0000.0001)                 2.693210245495156E+05,      /* J =  9 */
(PID.TID 0000.0001)                 2.774243179696503E+05,      /* J = 10 */
(PID.TID 0000.0001)                 2.842862532064524E+05,      /* J = 11 */
(PID.TID 0000.0001)                 2.899590699694043E+05,      /* J = 12 */
(PID.TID 0000.0001)                 2.944742915095688E+05,      /* J = 13 */
(PID.TID 0000.0001)                 2.978501920522794E+05,      /* J = 14 */
(PID.TID 0000.0001)                 3.000967749619962E+05,      /* J = 15 */
(PID.TID 0000.0001)     2 @  3.012190981969055E+05,             /* J = 16: 17 */
(PID.TID 0000.0001)                 3.000967749619962E+05,      /* J = 18 */
(PID.TID 0000.0001)                 2.978501920522794E+05,      /* J = 19 */
(PID.TID 0000.0001)                 2.944742915095688E+05,      /* J = 20 */
(PID.TID 0000.0001)                 2.899590699694043E+05,      /* J = 21 */
(PID.TID 0000.0001)                 2.842862532064524E+05,      /* J = 22 */
(PID.TID 0000.0001)                 2.774243179696503E+05,      /* J = 23 */
(PID.TID 0000.0001)                 2.693210245495156E+05,      /* J = 24 */
(PID.TID 0000.0001)                 2.598919724358304E+05,      /* J = 25 */
(PID.TID 0000.0001)                 2.490022710862746E+05,      /* J = 26 */
(PID.TID 0000.0001)                 2.364352994647058E+05,      /* J = 27 */
(PID.TID 0000.0001)                 2.218350349844185E+05,      /* J = 28 */
(PID.TID 0000.0001)                 2.045883481718707E+05,      /* J = 29 */
(PID.TID 0000.0001)                 1.835530058121492E+05,      /* J = 30 */
(PID.TID 0000.0001)                 1.563594089971120E+05,      /* J = 31 */
(PID.TID 0000.0001)                 1.202082051331828E+05       /* J = 32 */
(PID.TID 0000.0001)     ;
(PID.TID 0000.0001) dxG =  /* dxG(:,1,:,1) ( units: m ) */
(PID.TID 0000.0001)                 1.009837800879055E+05,      /* I =  1 */
(PID.TID 0000.0001)                 1.534505834330338E+05,      /* I =  2 */
(PID.TID 0000.0001)                 1.823321598773926E+05,      /* I =  3 */
(PID.TID 0000.0001)      . . .
(PID.TID 0000.0001)                 2.977867909042096E+05,      /* I = 46 */
(PID.TID 0000.0001)                 3.000380090330854E+05,      /* I = 47 */
(PID.TID 0000.0001)                 3.011625828699101E+05,      /* I = 48 */
(PID.TID 0000.0001)                 3.011625828699101E+05,      /* I = 49 */
(PID.TID 0000.0001)                 3.000380090330854E+05,      /* I = 50 */
(PID.TID 0000.0001)                 2.977867909042096E+05,      /* I = 51 */
(PID.TID 0000.0001)      . . .
(PID.TID 0000.0001)                 1.823321598773926E+05,      /* I = 94 */
(PID.TID 0000.0001)                 1.534505834330338E+05,      /* I = 95 */
(PID.TID 0000.0001)                 1.009837800879055E+05,      /* I = 96 */
(PID.TID 0000.0001)                 1.009837800879055E+05,      /* I = 97 */
(PID.TID 0000.0001)                 1.534505834330338E+05,      /* I = 98 */
(PID.TID 0000.0001)                 1.823321598773926E+05,      /* I = 99 */
(PID.TID 0000.0001)      . . .
(PID.TID 0000.0001)                 2.977867909042096E+05,      /* I =142 */
(PID.TID 0000.0001)                 3.000380090330854E+05,      /* I =143 */
(PID.TID 0000.0001)                 3.011625828699101E+05,      /* I =144 */
(PID.TID 0000.0001)                 3.011625828699101E+05,      /* I =145 */
(PID.TID 0000.0001)                 3.000380090330854E+05,      /* I =146 */
(PID.TID 0000.0001)                 2.977867909042096E+05,      /* I =147 */
(PID.TID 0000.0001)      . . .
(PID.TID 0000.0001)                 1.823321598773926E+05,      /* I =190 */
(PID.TID 0000.0001)                 1.534505834330338E+05,      /* I =191 */
(PID.TID 0000.0001)                 1.009837800879055E+05       /* I =192 */
(PID.TID 0000.0001)     ;
(PID.TID 0000.0001) dxG =  /* dxG(1,:,1,:) ( units: m ) */
(PID.TID 0000.0001)                 1.009837800879055E+05,      /* J =  1 */
(PID.TID 0000.0001)                 1.403701524205398E+05,      /* J =  2 */
(PID.TID 0000.0001)                 1.716197227386011E+05,      /* J =  3 */
(PID.TID 0000.0001)                 1.950254041626018E+05,      /* J =  4 */
(PID.TID 0000.0001)                 2.138410773065497E+05,      /* J =  5 */
(PID.TID 0000.0001)                 2.295958105911512E+05,      /* J =  6 */
(PID.TID 0000.0001)                 2.430829951739083E+05,      /* J =  7 */
(PID.TID 0000.0001)                 2.547526806712889E+05,      /* J =  8 */
(PID.TID 0000.0001)                 2.648750305193301E+05,      /* J =  9 */
(PID.TID 0000.0001)                 2.736173771018112E+05,      /* J = 10 */
(PID.TID 0000.0001)                 2.810845823202647E+05,      /* J = 11 */
(PID.TID 0000.0001)                 2.873420591008078E+05,      /* J = 12 */
(PID.TID 0000.0001)                 2.924298293668651E+05,      /* J = 13 */
(PID.TID 0000.0001)                 2.963715635865306E+05,      /* J = 14 */
(PID.TID 0000.0001)                 2.991805843171258E+05,      /* J = 15 */
(PID.TID 0000.0001)                 3.008638765647886E+05,      /* J = 16 */
(PID.TID 0000.0001)                 3.014246674484008E+05,      /* J = 17 */
(PID.TID 0000.0001)                 3.008638765647886E+05,      /* J = 18 */
(PID.TID 0000.0001)                 2.991805843171258E+05,      /* J = 19 */
(PID.TID 0000.0001)                 2.963715635865306E+05,      /* J = 20 */
(PID.TID 0000.0001)                 2.924298293668651E+05,      /* J = 21 */
(PID.TID 0000.0001)                 2.873420591008078E+05,      /* J = 22 */
(PID.TID 0000.0001)                 2.810845823202647E+05,      /* J = 23 */
(PID.TID 0000.0001)                 2.736173771018112E+05,      /* J = 24 */
(PID.TID 0000.0001)                 2.648750305193301E+05,      /* J = 25 */
(PID.TID 0000.0001)                 2.547526806712889E+05,      /* J = 26 */
(PID.TID 0000.0001)                 2.430829951739083E+05,      /* J = 27 */
(PID.TID 0000.0001)                 2.295958105911512E+05,      /* J = 28 */
(PID.TID 0000.0001)                 2.138410773065497E+05,      /* J = 29 */
(PID.TID 0000.0001)                 1.950254041626018E+05,      /* J = 30 */
(PID.TID 0000.0001)                 1.716197227386011E+05,      /* J = 31 */
(PID.TID 0000.0001)                 1.403701524205398E+05       /* J = 32 */
(PID.TID 0000.0001)     ;
(PID.TID 0000.0001) dyG =  /* dyG(:,1,:,1) ( units: m ) */
(PID.TID 0000.0001)                 1.009837800879055E+05,      /* I =  1 */
(PID.TID 0000.0001)                 1.403701524205398E+05,      /* I =  2 */
(PID.TID 0000.0001)                 1.716197227386011E+05,      /* I =  3 */
(PID.TID 0000.0001)      . . .
(PID.TID 0000.0001)                 2.963715635865306E+05,      /* I = 46 */
(PID.TID 0000.0001)                 2.991805843171258E+05,      /* I = 47 */
(PID.TID 0000.0001)                 3.008638765647886E+05,      /* I = 48 */
(PID.TID 0000.0001)                 3.014246674484008E+05,      /* I = 49 */
(PID.TID 0000.0001)                 3.008638765647886E+05,      /* I = 50 */
(PID.TID 0000.0001)                 2.991805843171258E+05,      /* I = 51 */
(PID.TID 0000.0001)      . . .
(PID.TID 0000.0001)                 1.950254041626018E+05,      /* I = 94 */
(PID.TID 0000.0001)                 1.716197227386011E+05,      /* I = 95 */
(PID.TID 0000.0001)                 1.403701524205398E+05,      /* I = 96 */
(PID.TID 0000.0001)                 1.009837800879055E+05,      /* I = 97 */
(PID.TID 0000.0001)                 1.403701524205398E+05,      /* I = 98 */
(PID.TID 0000.0001)                 1.716197227386011E+05,      /* I = 99 */
(PID.TID 0000.0001)      . . .
(PID.TID 0000.0001)                 2.963715635865306E+05,      /* I =142 */
(PID.TID 0000.0001)                 2.991805843171258E+05,      /* I =143 */
(PID.TID 0000.0001)                 3.008638765647886E+05,      /* I =144 */
(PID.TID 0000.0001)                 3.014246674484008E+05,      /* I =145 */
(PID.TID 0000.0001)                 3.008638765647886E+05,      /* I =146 */
(PID.TID 0000.0001)                 2.991805843171258E+05,      /* I =147 */
(PID.TID 0000.0001)      . . .
(PID.TID 0000.0001)                 1.950254041626018E+05,      /* I =190 */
(PID.TID 0000.0001)                 1.716197227386011E+05,      /* I =191 */
(PID.TID 0000.0001)                 1.403701524205398E+05       /* I =192 */
(PID.TID 0000.0001)     ;
(PID.TID 0000.0001) dyG =  /* dyG(1,:,1,:) ( units: m ) */
(PID.TID 0000.0001)                 1.009837800879055E+05,      /* J =  1 */
(PID.TID 0000.0001)                 1.534505834330338E+05,      /* J =  2 */
(PID.TID 0000.0001)                 1.823321598773926E+05,      /* J =  3 */
(PID.TID 0000.0001)                 2.038999045536999E+05,      /* J =  4 */
(PID.TID 0000.0001)                 2.213884732245467E+05,      /* J =  5 */
(PID.TID 0000.0001)                 2.361211699596122E+05,      /* J =  6 */
(PID.TID 0000.0001)                 2.487693460283865E+05,      /* J =  7 */
(PID.TID 0000.0001)                 2.597126963772147E+05,      /* J =  8 */
(PID.TID 0000.0001)                 2.691790288994575E+05,      /* J =  9 */
(PID.TID 0000.0001)                 2.773091043277394E+05,      /* J = 10 */
(PID.TID 0000.0001)                 2.841906470085516E+05,      /* J = 11 */
(PID.TID 0000.0001)                 2.898778860929753E+05,      /* J = 12 */
(PID.TID 0000.0001)                 2.944035815526416E+05,      /* J = 13 */
(PID.TID 0000.0001)                 2.977867909042096E+05,      /* J = 14 */
(PID.TID 0000.0001)                 3.000380090330854E+05,      /* J = 15 */
(PID.TID 0000.0001)     2 @  3.011625828699101E+05,             /* J = 16: 17 */
(PID.TID 0000.0001)                 3.000380090330854E+05,      /* J = 18 */
(PID.TID 0000.0001)                 2.977867909042096E+05,      /* J = 19 */
(PID.TID 0000.0001)                 2.944035815526416E+05,      /* J = 20 */
(PID.TID 0000.0001)                 2.898778860929753E+05,      /* J = 21 */
(PID.TID 0000.0001)                 2.841906470085516E+05,      /* J = 22 */
(PID.TID 0000.0001)                 2.773091043277394E+05,      /* J = 23 */
(PID.TID 0000.0001)                 2.691790288994575E+05,      /* J = 24 */
(PID.TID 0000.0001)                 2.597126963772147E+05,      /* J = 25 */
(PID.TID 0000.0001)                 2.487693460283865E+05,      /* J = 26 */
(PID.TID 0000.0001)                 2.361211699596122E+05,      /* J = 27 */
(PID.TID 0000.0001)                 2.213884732245467E+05,      /* J = 28 */
(PID.TID 0000.0001)                 2.038999045536999E+05,      /* J = 29 */
(PID.TID 0000.0001)                 1.823321598773926E+05,      /* J = 30 */
(PID.TID 0000.0001)                 1.534505834330338E+05,      /* J = 31 */
(PID.TID 0000.0001)                 1.009837800879055E+05       /* J = 32 */
(PID.TID 0000.0001)     ;
(PID.TID 0000.0001) dxC =  /* dxC(:,1,:,1) ( units: m ) */
(PID.TID 0000.0001)                 1.135373000692312E+05,      /* I =  1 */
(PID.TID 0000.0001)                 1.391343389937106E+05,      /* I =  2 */
(PID.TID 0000.0001)                 1.709574999026266E+05,      /* I =  3 */
(PID.TID 0000.0001)      . . .
(PID.TID 0000.0001)                 2.963038832565530E+05,      /* I = 46 */
(PID.TID 0000.0001)                 2.991142470004740E+05,      /* I = 47 */
(PID.TID 0000.0001)                 3.007982711627968E+05,      /* I = 48 */
(PID.TID 0000.0001)                 3.013593857228136E+05,      /* I = 49 */
(PID.TID 0000.0001)                 3.007982711627968E+05,      /* I = 50 */
(PID.TID 0000.0001)                 2.991142470004740E+05,      /* I = 51 */
(PID.TID 0000.0001)      . . .
(PID.TID 0000.0001)                 1.946503699269892E+05,      /* I = 94 */
(PID.TID 0000.0001)                 1.709574999026266E+05,      /* I = 95 */
(PID.TID 0000.0001)                 1.391343389937106E+05,      /* I = 96 */
(PID.TID 0000.0001)                 1.135373000692312E+05,      /* I = 97 */
(PID.TID 0000.0001)                 1.391343389937106E+05,      /* I = 98 */
(PID.TID 0000.0001)                 1.709574999026266E+05,      /* I = 99 */
(PID.TID 0000.0001)      . . .
(PID.TID 0000.0001)                 2.963038832565530E+05,      /* I =142 */
(PID.TID 0000.0001)                 2.991142470004740E+05,      /* I =143 */
(PID.TID 0000.0001)                 3.007982711627968E+05,      /* I =144 */
(PID.TID 0000.0001)                 3.013593857228136E+05,      /* I =145 */
(PID.TID 0000.0001)                 3.007982711627968E+05,      /* I =146 */
(PID.TID 0000.0001)                 2.991142470004740E+05,      /* I =147 */
(PID.TID 0000.0001)      . . .
(PID.TID 0000.0001)                 1.946503699269892E+05,      /* I =190 */
(PID.TID 0000.0001)                 1.709574999026266E+05,      /* I =191 */
(PID.TID 0000.0001)                 1.391343389937106E+05       /* I =192 */
(PID.TID 0000.0001)     ;
(PID.TID 0000.0001) dxC =  /* dxC(1,:,1,:) ( units: m ) */
(PID.TID 0000.0001)                 1.135373000692312E+05,      /* J =  1 */
(PID.TID 0000.0001)                 1.549545757850771E+05,      /* J =  2 */
(PID.TID 0000.0001)                 1.829777599966776E+05,      /* J =  3 */
(PID.TID 0000.0001)                 2.042717761866506E+05,      /* J =  4 */
(PID.TID 0000.0001)                 2.216367828252819E+05,      /* J =  5 */
(PID.TID 0000.0001)                 2.363029564123586E+05,      /* J =  6 */
(PID.TID 0000.0001)                 2.489113743322025E+05,      /* J =  7 */
(PID.TID 0000.0001)                 2.598293319150326E+05,      /* J =  8 */
(PID.TID 0000.0001)                 2.692787333338535E+05,      /* J =  9 */
(PID.TID 0000.0001)                 2.773972106720365E+05,      /* J = 10 */
(PID.TID 0000.0001)                 2.842706922224557E+05,      /* J = 11 */
(PID.TID 0000.0001)                 2.899523122489403E+05,      /* J = 12 */
(PID.TID 0000.0001)                 2.944741346384699E+05,      /* J = 13 */
(PID.TID 0000.0001)                 2.978547649292580E+05,      /* J = 14 */
(PID.TID 0000.0001)                 3.001044073506459E+05,      /* J = 15 */
(PID.TID 0000.0001)     2 @  3.012281885409289E+05,             /* J = 16: 17 */
(PID.TID 0000.0001)                 3.001044073506459E+05,      /* J = 18 */
(PID.TID 0000.0001)                 2.978547649292580E+05,      /* J = 19 */
(PID.TID 0000.0001)                 2.944741346384699E+05,      /* J = 20 */
(PID.TID 0000.0001)                 2.899523122489403E+05,      /* J = 21 */
(PID.TID 0000.0001)                 2.842706922224557E+05,      /* J = 22 */
(PID.TID 0000.0001)                 2.773972106720365E+05,      /* J = 23 */
(PID.TID 0000.0001)                 2.692787333338535E+05,      /* J = 24 */
(PID.TID 0000.0001)                 2.598293319150326E+05,      /* J = 25 */
(PID.TID 0000.0001)                 2.489113743322025E+05,      /* J = 26 */
(PID.TID 0000.0001)                 2.363029564123586E+05,      /* J = 27 */
(PID.TID 0000.0001)                 2.216367828252819E+05,      /* J = 28 */
(PID.TID 0000.0001)                 2.042717761866506E+05,      /* J = 29 */
(PID.TID 0000.0001)                 1.829777599966776E+05,      /* J = 30 */
(PID.TID 0000.0001)                 1.549545757850771E+05,      /* J = 31 */
(PID.TID 0000.0001)                 1.135373000692312E+05       /* J = 32 */
(PID.TID 0000.0001)     ;
(PID.TID 0000.0001) dyC =  /* dyC(:,1,:,1) ( units: m ) */
(PID.TID 0000.0001)                 1.135373000692312E+05,      /* I =  1 */
(PID.TID 0000.0001)                 1.549545757850771E+05,      /* I =  2 */
(PID.TID 0000.0001)                 1.829777599966776E+05,      /* I =  3 */
(PID.TID 0000.0001)      . . .
(PID.TID 0000.0001)                 2.978547649292580E+05,      /* I = 46 */
(PID.TID 0000.0001)                 3.001044073506459E+05,      /* I = 47 */
(PID.TID 0000.0001)                 3.012281885409289E+05,      /* I = 48 */
(PID.TID 0000.0001)                 3.012281885409289E+05,      /* I = 49 */
(PID.TID 0000.0001)                 3.001044073506459E+05,      /* I = 50 */
(PID.TID 0000.0001)                 2.978547649292580E+05,      /* I = 51 */
(PID.TID 0000.0001)      . . .
(PID.TID 0000.0001)                 1.829777599966776E+05,      /* I = 94 */
(PID.TID 0000.0001)                 1.549545757850771E+05,      /* I = 95 */
(PID.TID 0000.0001)                 1.135373000692312E+05,      /* I = 96 */
(PID.TID 0000.0001)                 1.135373000692312E+05,      /* I = 97 */
(PID.TID 0000.0001)                 1.549545757850771E+05,      /* I = 98 */
(PID.TID 0000.0001)                 1.829777599966776E+05,      /* I = 99 */
(PID.TID 0000.0001)      . . .
(PID.TID 0000.0001)                 2.978547649292580E+05,      /* I =142 */
(PID.TID 0000.0001)                 3.001044073506459E+05,      /* I =143 */
(PID.TID 0000.0001)                 3.012281885409289E+05,      /* I =144 */
(PID.TID 0000.0001)                 3.012281885409289E+05,      /* I =145 */
(PID.TID 0000.0001)                 3.001044073506459E+05,      /* I =146 */
(PID.TID 0000.0001)                 2.978547649292580E+05,      /* I =147 */
(PID.TID 0000.0001)      . . .
(PID.TID 0000.0001)                 1.829777599966776E+05,      /* I =190 */
(PID.TID 0000.0001)                 1.549545757850771E+05,      /* I =191 */
(PID.TID 0000.0001)                 1.135373000692312E+05       /* I =192 */
(PID.TID 0000.0001)     ;
(PID.TID 0000.0001) dyC =  /* dyC(1,:,1,:) ( units: m ) */
(PID.TID 0000.0001)                 1.135373000692312E+05,      /* J =  1 */
(PID.TID 0000.0001)                 1.391343389937106E+05,      /* J =  2 */
(PID.TID 0000.0001)                 1.709574999026266E+05,      /* J =  3 */
(PID.TID 0000.0001)                 1.946503699269892E+05,      /* J =  4 */
(PID.TID 0000.0001)                 2.135964483342134E+05,      /* J =  5 */
(PID.TID 0000.0001)                 2.294195678257306E+05,      /* J =  6 */
(PID.TID 0000.0001)                 2.429464709770498E+05,      /* J =  7 */
(PID.TID 0000.0001)                 2.546408290696998E+05,      /* J =  8 */
(PID.TID 0000.0001)                 2.647791839299727E+05,      /* J =  9 */
(PID.TID 0000.0001)                 2.735321911346108E+05,      /* J = 10 */
(PID.TID 0000.0001)                 2.810065951609633E+05,      /* J = 11 */
(PID.TID 0000.0001)                 2.872689479506990E+05,      /* J = 12 */
(PID.TID 0000.0001)                 2.923599955312932E+05,      /* J = 13 */
(PID.TID 0000.0001)                 2.963038832565530E+05,      /* J = 14 */
(PID.TID 0000.0001)                 2.991142470004740E+05,      /* J = 15 */
(PID.TID 0000.0001)                 3.007982711627968E+05,      /* J = 16 */
(PID.TID 0000.0001)                 3.013593857228136E+05,      /* J = 17 */
(PID.TID 0000.0001)                 3.007982711627968E+05,      /* J = 18 */
(PID.TID 0000.0001)                 2.991142470004740E+05,      /* J = 19 */
(PID.TID 0000.0001)                 2.963038832565530E+05,      /* J = 20 */
(PID.TID 0000.0001)                 2.923599955312932E+05,      /* J = 21 */
(PID.TID 0000.0001)                 2.872689479506990E+05,      /* J = 22 */
(PID.TID 0000.0001)                 2.810065951609633E+05,      /* J = 23 */
(PID.TID 0000.0001)                 2.735321911346108E+05,      /* J = 24 */
(PID.TID 0000.0001)                 2.647791839299727E+05,      /* J = 25 */
(PID.TID 0000.0001)                 2.546408290696998E+05,      /* J = 26 */
(PID.TID 0000.0001)                 2.429464709770498E+05,      /* J = 27 */
(PID.TID 0000.0001)                 2.294195678257306E+05,      /* J = 28 */
(PID.TID 0000.0001)                 2.135964483342134E+05,      /* J = 29 */
(PID.TID 0000.0001)                 1.946503699269892E+05,      /* J = 30 */
(PID.TID 0000.0001)                 1.709574999026266E+05,      /* J = 31 */
(PID.TID 0000.0001)                 1.391343389937106E+05       /* J = 32 */
(PID.TID 0000.0001)     ;
(PID.TID 0000.0001) dxV =  /* dxV(:,1,:,1) ( units: m ) */
(PID.TID 0000.0001)                 8.015229982413632E+04,      /* I =  1 */
(PID.TID 0000.0001)                 1.333130744933864E+05,      /* I =  2 */
(PID.TID 0000.0001)                 1.691744868129062E+05,      /* I =  3 */
(PID.TID 0000.0001)      . . .
(PID.TID 0000.0001)                 2.962371870847826E+05,      /* I = 46 */
(PID.TID 0000.0001)                 2.990534755671296E+05,      /* I = 47 */
(PID.TID 0000.0001)                 3.007409169495504E+05,      /* I = 48 */
(PID.TID 0000.0001)                 3.013031486919771E+05,      /* I = 49 */
(PID.TID 0000.0001)                 3.007409169495504E+05,      /* I = 50 */
(PID.TID 0000.0001)                 2.990534755671296E+05,      /* I = 51 */
(PID.TID 0000.0001)      . . .
(PID.TID 0000.0001)                 1.937548202849060E+05,      /* I = 94 */
(PID.TID 0000.0001)                 1.691744868129062E+05,      /* I = 95 */
(PID.TID 0000.0001)                 1.333130744933864E+05,      /* I = 96 */
(PID.TID 0000.0001)                 8.015229982413632E+04,      /* I = 97 */
(PID.TID 0000.0001)                 1.333130744933864E+05,      /* I = 98 */
(PID.TID 0000.0001)                 1.691744868129062E+05,      /* I = 99 */
(PID.TID 0000.0001)      . . .
(PID.TID 0000.0001)                 2.962371870847826E+05,      /* I =142 */
(PID.TID 0000.0001)                 2.990534755671296E+05,      /* I =143 */
(PID.TID 0000.0001)                 3.007409169495504E+05,      /* I =144 */
(PID.TID 0000.0001)                 3.013031486919771E+05,      /* I =145 */
(PID.TID 0000.0001)                 3.007409169495504E+05,      /* I =146 */
(PID.TID 0000.0001)                 2.990534755671296E+05,      /* I =147 */
(PID.TID 0000.0001)      . . .
(PID.TID 0000.0001)                 1.937548202849060E+05,      /* I =190 */
(PID.TID 0000.0001)                 1.691744868129062E+05,      /* I =191 */
(PID.TID 0000.0001)                 1.333130744933864E+05       /* I =192 */
(PID.TID 0000.0001)     ;
(PID.TID 0000.0001) dxV =  /* dxV(1,:,1,:) ( units: m ) */
(PID.TID 0000.0001)                 8.015229982413632E+04,      /* J =  1 */
(PID.TID 0000.0001)                 1.362652340208229E+05,      /* J =  2 */
(PID.TID 0000.0001)                 1.701080315742101E+05,      /* J =  3 */
(PID.TID 0000.0001)                 1.942331448101592E+05,      /* J =  4 */
(PID.TID 0000.0001)                 2.133486626971531E+05,      /* J =  5 */
(PID.TID 0000.0001)                 2.292584591272880E+05,      /* J =  6 */
(PID.TID 0000.0001)                 2.428369969078989E+05,      /* J =  7 */
(PID.TID 0000.0001)                 2.545652950875683E+05,      /* J =  8 */
(PID.TID 0000.0001)                 2.647274964828301E+05,      /* J =  9 */
(PID.TID 0000.0001)                 2.734980225206389E+05,      /* J = 10 */
(PID.TID 0000.0001)                 2.809856491525217E+05,      /* J = 11 */
(PID.TID 0000.0001)                 2.872580915202295E+05,      /* J = 12 */
(PID.TID 0000.0001)                 2.923567890694162E+05,      /* J = 13 */
(PID.TID 0000.0001)                 2.963063101754721E+05,      /* J = 14 */
(PID.TID 0000.0001)                 2.991205495886625E+05,      /* J = 15 */
(PID.TID 0000.0001)                 3.008068453676764E+05,      /* J = 16 */
(PID.TID 0000.0001)                 3.013686170436881E+05,      /* J = 17 */
(PID.TID 0000.0001)                 3.008068453676764E+05,      /* J = 18 */
(PID.TID 0000.0001)                 2.991205495886625E+05,      /* J = 19 */
(PID.TID 0000.0001)                 2.963063101754721E+05,      /* J = 20 */
(PID.TID 0000.0001)                 2.923567890694162E+05,      /* J = 21 */
(PID.TID 0000.0001)                 2.872580915202295E+05,      /* J = 22 */
(PID.TID 0000.0001)                 2.809856491525217E+05,      /* J = 23 */
(PID.TID 0000.0001)                 2.734980225206389E+05,      /* J = 24 */
(PID.TID 0000.0001)                 2.647274964828301E+05,      /* J = 25 */
(PID.TID 0000.0001)                 2.545652950875683E+05,      /* J = 26 */
(PID.TID 0000.0001)                 2.428369969078989E+05,      /* J = 27 */
(PID.TID 0000.0001)                 2.292584591272880E+05,      /* J = 28 */
(PID.TID 0000.0001)                 2.133486626971531E+05,      /* J = 29 */
(PID.TID 0000.0001)                 1.942331448101592E+05,      /* J = 30 */
(PID.TID 0000.0001)                 1.701080315742101E+05,      /* J = 31 */
(PID.TID 0000.0001)                 1.362652340208229E+05       /* J = 32 */
(PID.TID 0000.0001)     ;
(PID.TID 0000.0001) dyU =  /* dyU(:,1,:,1) ( units: m ) */
(PID.TID 0000.0001)                 8.015229982413632E+04,      /* I =  1 */
(PID.TID 0000.0001)                 1.362652340208229E+05,      /* I =  2 */
(PID.TID 0000.0001)                 1.701080315742101E+05,      /* I =  3 */
(PID.TID 0000.0001)      . . .
(PID.TID 0000.0001)                 2.963063101754721E+05,      /* I = 46 */
(PID.TID 0000.0001)                 2.991205495886625E+05,      /* I = 47 */
(PID.TID 0000.0001)                 3.008068453676764E+05,      /* I = 48 */
(PID.TID 0000.0001)                 3.013686170436881E+05,      /* I = 49 */
(PID.TID 0000.0001)                 3.008068453676764E+05,      /* I = 50 */
(PID.TID 0000.0001)                 2.991205495886625E+05,      /* I = 51 */
(PID.TID 0000.0001)      . . .
(PID.TID 0000.0001)                 1.942331448101592E+05,      /* I = 94 */
(PID.TID 0000.0001)                 1.701080315742101E+05,      /* I = 95 */
(PID.TID 0000.0001)                 1.362652340208229E+05,      /* I = 96 */
(PID.TID 0000.0001)                 8.015229982413632E+04,      /* I = 97 */
(PID.TID 0000.0001)                 1.362652340208229E+05,      /* I = 98 */
(PID.TID 0000.0001)                 1.701080315742101E+05,      /* I = 99 */
(PID.TID 0000.0001)      . . .
(PID.TID 0000.0001)                 2.963063101754721E+05,      /* I =142 */
(PID.TID 0000.0001)                 2.991205495886625E+05,      /* I =143 */
(PID.TID 0000.0001)                 3.008068453676764E+05,      /* I =144 */
(PID.TID 0000.0001)                 3.013686170436881E+05,      /* I =145 */
(PID.TID 0000.0001)                 3.008068453676764E+05,      /* I =146 */
(PID.TID 0000.0001)                 2.991205495886625E+05,      /* I =147 */
(PID.TID 0000.0001)      . . .
(PID.TID 0000.0001)                 1.942331448101592E+05,      /* I =190 */
(PID.TID 0000.0001)                 1.701080315742101E+05,      /* I =191 */
(PID.TID 0000.0001)                 1.362652340208229E+05       /* I =192 */
(PID.TID 0000.0001)     ;
(PID.TID 0000.0001) dyU =  /* dyU(1,:,1,:) ( units: m ) */
(PID.TID 0000.0001)                 8.015229982413632E+04,      /* J =  1 */
(PID.TID 0000.0001)                 1.333130744933864E+05,      /* J =  2 */
(PID.TID 0000.0001)                 1.691744868129062E+05,      /* J =  3 */
(PID.TID 0000.0001)                 1.937548202849060E+05,      /* J =  4 */
(PID.TID 0000.0001)                 2.130490056267208E+05,      /* J =  5 */
(PID.TID 0000.0001)                 2.290479919481738E+05,      /* J =  6 */
(PID.TID 0000.0001)                 2.426774358027003E+05,      /* J =  7 */
(PID.TID 0000.0001)                 2.544372984215561E+05,      /* J =  8 */
(PID.TID 0000.0001)                 2.646201463834826E+05,      /* J =  9 */
(PID.TID 0000.0001)                 2.734046499619031E+05,      /* J = 10 */
(PID.TID 0000.0001)                 2.809019351693761E+05,      /* J = 11 */
(PID.TID 0000.0001)                 2.871811105274442E+05,      /* J = 12 */
(PID.TID 0000.0001)                 2.922844849381675E+05,      /* J = 13 */
(PID.TID 0000.0001)                 2.962371870847826E+05,      /* J = 14 */
(PID.TID 0000.0001)                 2.990534755671296E+05,      /* J = 15 */
(PID.TID 0000.0001)                 3.007409169495504E+05,      /* J = 16 */
(PID.TID 0000.0001)                 3.013031486919771E+05,      /* J = 17 */
(PID.TID 0000.0001)                 3.007409169495504E+05,      /* J = 18 */
(PID.TID 0000.0001)                 2.990534755671296E+05,      /* J = 19 */
(PID.TID 0000.0001)                 2.962371870847826E+05,      /* J = 20 */
(PID.TID 0000.0001)                 2.922844849381675E+05,      /* J = 21 */
(PID.TID 0000.0001)                 2.871811105274442E+05,      /* J = 22 */
(PID.TID 0000.0001)                 2.809019351693761E+05,      /* J = 23 */
(PID.TID 0000.0001)                 2.734046499619031E+05,      /* J = 24 */
(PID.TID 0000.0001)                 2.646201463834826E+05,      /* J = 25 */
(PID.TID 0000.0001)                 2.544372984215561E+05,      /* J = 26 */
(PID.TID 0000.0001)                 2.426774358027003E+05,      /* J = 27 */
(PID.TID 0000.0001)                 2.290479919481738E+05,      /* J = 28 */
(PID.TID 0000.0001)                 2.130490056267208E+05,      /* J = 29 */
(PID.TID 0000.0001)                 1.937548202849060E+05,      /* J = 30 */
(PID.TID 0000.0001)                 1.691744868129062E+05,      /* J = 31 */
(PID.TID 0000.0001)                 1.333130744933864E+05       /* J = 32 */
(PID.TID 0000.0001)     ;
(PID.TID 0000.0001) rA  =  /* rA (:,1,:,1) ( units: m^2 ) */
(PID.TID 0000.0001)                 1.549786705672200E+10,      /* I =  1 */
(PID.TID 0000.0001)                 2.487202533723944E+10,      /* I =  2 */
(PID.TID 0000.0001)                 3.392265412140352E+10,      /* I =  3 */
(PID.TID 0000.0001)      . . .
(PID.TID 0000.0001)                 8.871245486529788E+10,      /* I = 46 */
(PID.TID 0000.0001)                 9.005359372079962E+10,      /* I = 47 */
(PID.TID 0000.0001)                 9.072735712796770E+10,      /* I = 48 */
(PID.TID 0000.0001)                 9.072735712796770E+10,      /* I = 49 */
(PID.TID 0000.0001)                 9.005359372079962E+10,      /* I = 50 */
(PID.TID 0000.0001)                 8.871245486529788E+10,      /* I = 51 */
(PID.TID 0000.0001)      . . .
(PID.TID 0000.0001)                 3.392265412140352E+10,      /* I = 94 */
(PID.TID 0000.0001)                 2.487202533723944E+10,      /* I = 95 */
(PID.TID 0000.0001)                 1.549786705672200E+10,      /* I = 96 */
(PID.TID 0000.0001)                 1.549786705672200E+10,      /* I = 97 */
(PID.TID 0000.0001)                 2.487202533723944E+10,      /* I = 98 */
(PID.TID 0000.0001)                 3.392265412140352E+10,      /* I = 99 */
(PID.TID 0000.0001)      . . .
(PID.TID 0000.0001)                 8.871245486529788E+10,      /* I =142 */
(PID.TID 0000.0001)                 9.005359372079962E+10,      /* I =143 */
(PID.TID 0000.0001)                 9.072735712796770E+10,      /* I =144 */
(PID.TID 0000.0001)                 9.072735712796770E+10,      /* I =145 */
(PID.TID 0000.0001)                 9.005359372079962E+10,      /* I =146 */
(PID.TID 0000.0001)                 8.871245486529788E+10,      /* I =147 */
(PID.TID 0000.0001)      . . .
(PID.TID 0000.0001)                 3.392265412140352E+10,      /* I =190 */
(PID.TID 0000.0001)                 2.487202533723944E+10,      /* I =191 */
(PID.TID 0000.0001)                 1.549786705672200E+10       /* I =192 */
(PID.TID 0000.0001)     ;
(PID.TID 0000.0001) rA  =  /* rA (1,:,1,:) ( units: m^2 ) */
(PID.TID 0000.0001)                 1.549786705672200E+10,      /* J =  1 */
(PID.TID 0000.0001)                 2.487202533723944E+10,      /* J =  2 */
(PID.TID 0000.0001)                 3.392265412140352E+10,      /* J =  3 */
(PID.TID 0000.0001)                 4.200427377313133E+10,      /* J =  4 */
(PID.TID 0000.0001)                 4.931323764668228E+10,      /* J =  5 */
(PID.TID 0000.0001)                 5.597545074899419E+10,      /* J =  6 */
(PID.TID 0000.0001)                 6.205603937791459E+10,      /* J =  7 */
(PID.TID 0000.0001)                 6.758299971934573E+10,      /* J =  8 */
(PID.TID 0000.0001)                 7.256155653843707E+10,      /* J =  9 */
(PID.TID 0000.0001)                 7.698291833687604E+10,      /* J = 10 */
(PID.TID 0000.0001)                 8.083005486272011E+10,      /* J = 11 */
(PID.TID 0000.0001)                 8.408183191745641E+10,      /* J = 12 */
(PID.TID 0000.0001)                 8.671615787312848E+10,      /* J = 13 */
(PID.TID 0000.0001)                 8.871245486529788E+10,      /* J = 14 */
(PID.TID 0000.0001)                 9.005359372079964E+10,      /* J = 15 */
(PID.TID 0000.0001)     2 @  9.072735712796770E+10,             /* J = 16: 17 */
(PID.TID 0000.0001)                 9.005359372079964E+10,      /* J = 18 */
(PID.TID 0000.0001)                 8.871245486529788E+10,      /* J = 19 */
(PID.TID 0000.0001)                 8.671615787312848E+10,      /* J = 20 */
(PID.TID 0000.0001)                 8.408183191745641E+10,      /* J = 21 */
(PID.TID 0000.0001)                 8.083005486272011E+10,      /* J = 22 */
(PID.TID 0000.0001)                 7.698291833687604E+10,      /* J = 23 */
(PID.TID 0000.0001)                 7.256155653843707E+10,      /* J = 24 */
(PID.TID 0000.0001)                 6.758299971934573E+10,      /* J = 25 */
(PID.TID 0000.0001)                 6.205603937791459E+10,      /* J = 26 */
(PID.TID 0000.0001)                 5.597545074899419E+10,      /* J = 27 */
(PID.TID 0000.0001)                 4.931323764668228E+10,      /* J = 28 */
(PID.TID 0000.0001)                 4.200427377313133E+10,      /* J = 29 */
(PID.TID 0000.0001)                 3.392265412140352E+10,      /* J = 30 */
(PID.TID 0000.0001)                 2.487202533723944E+10,      /* J = 31 */
(PID.TID 0000.0001)                 1.549786705672200E+10       /* J = 32 */
(PID.TID 0000.0001)     ;
(PID.TID 0000.0001) rAw =  /* rAw(:,1,:,1) ( units: m^2 ) */
(PID.TID 0000.0001)                 1.146542574196578E+10,      /* I =  1 */
(PID.TID 0000.0001)                 1.953030837147821E+10,      /* I =  2 */
(PID.TID 0000.0001)                 2.933967873337320E+10,      /* I =  3 */
(PID.TID 0000.0001)      . . .
(PID.TID 0000.0001)                 8.781604517750543E+10,      /* I = 46 */
(PID.TID 0000.0001)                 8.948917519517891E+10,      /* I = 47 */
(PID.TID 0000.0001)                 9.049933392602551E+10,      /* I = 48 */
(PID.TID 0000.0001)                 9.083715262395341E+10,      /* I = 49 */
(PID.TID 0000.0001)                 9.049933392602551E+10,      /* I = 50 */
(PID.TID 0000.0001)                 8.948917519517891E+10,      /* I = 51 */
(PID.TID 0000.0001)      . . .
(PID.TID 0000.0001)                 3.796176706541101E+10,      /* I = 94 */
(PID.TID 0000.0001)                 2.933967873337320E+10,      /* I = 95 */
(PID.TID 0000.0001)                 1.953030837147821E+10,      /* I = 96 */
(PID.TID 0000.0001)                 1.146542574196578E+10,      /* I = 97 */
(PID.TID 0000.0001)                 1.953030837147821E+10,      /* I = 98 */
(PID.TID 0000.0001)                 2.933967873337320E+10,      /* I = 99 */
(PID.TID 0000.0001)      . . .
(PID.TID 0000.0001)                 8.781604517750543E+10,      /* I =142 */
(PID.TID 0000.0001)                 8.948917519517891E+10,      /* I =143 */
(PID.TID 0000.0001)                 9.049933392602551E+10,      /* I =144 */
(PID.TID 0000.0001)                 9.083715262395341E+10,      /* I =145 */
(PID.TID 0000.0001)                 9.049933392602551E+10,      /* I =146 */
(PID.TID 0000.0001)                 8.948917519517891E+10,      /* I =147 */
(PID.TID 0000.0001)      . . .
(PID.TID 0000.0001)                 3.796176706541101E+10,      /* I =190 */
(PID.TID 0000.0001)                 2.933967873337320E+10,      /* I =191 */
(PID.TID 0000.0001)                 1.953030837147821E+10       /* I =192 */
(PID.TID 0000.0001)     ;
(PID.TID 0000.0001) rAw =  /* rAw(1,:,1,:) ( units: m^2 ) */
(PID.TID 0000.0001)                 1.146542574196578E+10,      /* J =  1 */
(PID.TID 0000.0001)                 2.377787005983833E+10,      /* J =  2 */
(PID.TID 0000.0001)                 3.336273018972140E+10,      /* J =  3 */
(PID.TID 0000.0001)                 4.165099566747280E+10,      /* J =  4 */
(PID.TID 0000.0001)                 4.906782896008959E+10,      /* J =  5 */
(PID.TID 0000.0001)                 5.579613053300137E+10,      /* J =  6 */
(PID.TID 0000.0001)                 6.192151981164894E+10,      /* J =  7 */
(PID.TID 0000.0001)                 6.748097638954340E+10,      /* J =  8 */
(PID.TID 0000.0001)                 7.248418794208269E+10,      /* J =  9 */
(PID.TID 0000.0001)                 7.692477203447566E+10,      /* J = 10 */
(PID.TID 0000.0001)                 8.078707194826852E+10,      /* J = 11 */
(PID.TID 0000.0001)                 8.405076334249313E+10,      /* J = 12 */
(PID.TID 0000.0001)                 8.669423991218034E+10,      /* J = 13 */
(PID.TID 0000.0001)                 8.869721460381146E+10,      /* J = 14 */
(PID.TID 0000.0001)                 9.004272888354184E+10,      /* J = 15 */
(PID.TID 0000.0001)     2 @  9.071865929421040E+10,             /* J = 16: 17 */
(PID.TID 0000.0001)                 9.004272888354184E+10,      /* J = 18 */
(PID.TID 0000.0001)                 8.869721460381146E+10,      /* J = 19 */
(PID.TID 0000.0001)                 8.669423991218034E+10,      /* J = 20 */
(PID.TID 0000.0001)                 8.405076334249313E+10,      /* J = 21 */
(PID.TID 0000.0001)                 8.078707194826852E+10,      /* J = 22 */
(PID.TID 0000.0001)                 7.692477203447566E+10,      /* J = 23 */
(PID.TID 0000.0001)                 7.248418794208269E+10,      /* J = 24 */
(PID.TID 0000.0001)                 6.748097638954340E+10,      /* J = 25 */
(PID.TID 0000.0001)                 6.192151981164894E+10,      /* J = 26 */
(PID.TID 0000.0001)                 5.579613053300137E+10,      /* J = 27 */
(PID.TID 0000.0001)                 4.906782896008959E+10,      /* J = 28 */
(PID.TID 0000.0001)                 4.165099566747280E+10,      /* J = 29 */
(PID.TID 0000.0001)                 3.336273018972140E+10,      /* J = 30 */
(PID.TID 0000.0001)                 2.377787005983833E+10,      /* J = 31 */
(PID.TID 0000.0001)                 1.146542574196578E+10       /* J = 32 */
(PID.TID 0000.0001)     ;
(PID.TID 0000.0001) rAs =  /* rAs(:,1,:,1) ( units: m^2 ) */
(PID.TID 0000.0001)                 1.146542574196578E+10,      /* I =  1 */
(PID.TID 0000.0001)                 2.377787005983833E+10,      /* I =  2 */
(PID.TID 0000.0001)                 3.336273018972140E+10,      /* I =  3 */
(PID.TID 0000.0001)      . . .
(PID.TID 0000.0001)                 8.869721460381146E+10,      /* I = 46 */
(PID.TID 0000.0001)                 9.004272888354184E+10,      /* I = 47 */
(PID.TID 0000.0001)                 9.071865929421040E+10,      /* I = 48 */
(PID.TID 0000.0001)                 9.071865929421040E+10,      /* I = 49 */
(PID.TID 0000.0001)                 9.004272888354184E+10,      /* I = 50 */
(PID.TID 0000.0001)                 8.869721460381146E+10,      /* I = 51 */
(PID.TID 0000.0001)      . . .
(PID.TID 0000.0001)                 3.336273018972140E+10,      /* I = 94 */
(PID.TID 0000.0001)                 2.377787005983833E+10,      /* I = 95 */
(PID.TID 0000.0001)                 1.146542574196578E+10,      /* I = 96 */
(PID.TID 0000.0001)                 1.146542574196578E+10,      /* I = 97 */
(PID.TID 0000.0001)                 2.377787005983833E+10,      /* I = 98 */
(PID.TID 0000.0001)                 3.336273018972140E+10,      /* I = 99 */
(PID.TID 0000.0001)      . . .
(PID.TID 0000.0001)                 8.869721460381146E+10,      /* I =142 */
(PID.TID 0000.0001)                 9.004272888354184E+10,      /* I =143 */
(PID.TID 0000.0001)                 9.071865929421040E+10,      /* I =144 */
(PID.TID 0000.0001)                 9.071865929421040E+10,      /* I =145 */
(PID.TID 0000.0001)                 9.004272888354184E+10,      /* I =146 */
(PID.TID 0000.0001)                 8.869721460381146E+10,      /* I =147 */
(PID.TID 0000.0001)      . . .
(PID.TID 0000.0001)                 3.336273018972140E+10,      /* I =190 */
(PID.TID 0000.0001)                 2.377787005983833E+10,      /* I =191 */
(PID.TID 0000.0001)                 1.146542574196578E+10       /* I =192 */
(PID.TID 0000.0001)     ;
(PID.TID 0000.0001) rAs =  /* rAs(1,:,1,:) ( units: m^2 ) */
(PID.TID 0000.0001)                 1.146542574196578E+10,      /* J =  1 */
(PID.TID 0000.0001)                 1.953030837147821E+10,      /* J =  2 */
(PID.TID 0000.0001)                 2.933967873337320E+10,      /* J =  3 */
(PID.TID 0000.0001)                 3.796176706541101E+10,      /* J =  4 */
(PID.TID 0000.0001)                 4.567569462064098E+10,      /* J =  5 */
(PID.TID 0000.0001)                 5.267377164042021E+10,      /* J =  6 */
(PID.TID 0000.0001)                 5.905615583203223E+10,      /* J =  7 */
(PID.TID 0000.0001)                 6.487043381386549E+10,      /* J =  8 */
(PID.TID 0000.0001)                 7.013339442433482E+10,      /* J =  9 */
(PID.TID 0000.0001)                 7.484316069116351E+10,      /* J = 10 */
(PID.TID 0000.0001)                 7.898662143005907E+10,      /* J = 11 */
(PID.TID 0000.0001)                 8.254445101987663E+10,      /* J = 12 */
(PID.TID 0000.0001)                 8.549478360691351E+10,      /* J = 13 */
(PID.TID 0000.0001)                 8.781604517750543E+10,      /* J = 14 */
(PID.TID 0000.0001)                 8.948917519517891E+10,      /* J = 15 */
(PID.TID 0000.0001)                 9.049933392602551E+10,      /* J = 16 */
(PID.TID 0000.0001)                 9.083715262395341E+10,      /* J = 17 */
(PID.TID 0000.0001)                 9.049933392602551E+10,      /* J = 18 */
(PID.TID 0000.0001)                 8.948917519517891E+10,      /* J = 19 */
(PID.TID 0000.0001)                 8.781604517750543E+10,      /* J = 20 */
(PID.TID 0000.0001)                 8.549478360691351E+10,      /* J = 21 */
(PID.TID 0000.0001)                 8.254445101987663E+10,      /* J = 22 */
(PID.TID 0000.0001)                 7.898662143005907E+10,      /* J = 23 */
(PID.TID 0000.0001)                 7.484316069116351E+10,      /* J = 24 */
(PID.TID 0000.0001)                 7.013339442433482E+10,      /* J = 25 */
(PID.TID 0000.0001)                 6.487043381386549E+10,      /* J = 26 */
(PID.TID 0000.0001)                 5.905615583203223E+10,      /* J = 27 */
(PID.TID 0000.0001)                 5.267377164042021E+10,      /* J = 28 */
(PID.TID 0000.0001)                 4.567569462064098E+10,      /* J = 29 */
(PID.TID 0000.0001)                 3.796176706541101E+10,      /* J = 30 */
(PID.TID 0000.0001)                 2.933967873337320E+10,      /* J = 31 */
(PID.TID 0000.0001)                 1.953030837147821E+10       /* J = 32 */
(PID.TID 0000.0001)     ;
(PID.TID 0000.0001) globalArea = /* Integrated horizontal Area (m^2) */
(PID.TID 0000.0001)                 5.098642104278459E+14
(PID.TID 0000.0001)     ;
(PID.TID 0000.0001) hasWetCSCorners = /* Domain contains CS corners (True/False) */
(PID.TID 0000.0001)                   T
(PID.TID 0000.0001)     ;
(PID.TID 0000.0001) // =======================================================
(PID.TID 0000.0001) // End of Model config. summary
(PID.TID 0000.0001) // =======================================================
(PID.TID 0000.0001) 
(PID.TID 0000.0001) == Packages configuration : Check & print summary ==
(PID.TID 0000.0001) 
(PID.TID 0000.0001) ATM_PHYS_CHECK: #define ALLOW_ATM_PHYS
(PID.TID 0000.0001) atmPhys_addTendT = /* apply Atm-Phys tendency to Temperature Eq.*/
(PID.TID 0000.0001)                   T
(PID.TID 0000.0001)     ;
(PID.TID 0000.0001) atmPhys_addTendS = /* apply Atm-Phys tendency to Salinity Eq.*/
(PID.TID 0000.0001)                   T
(PID.TID 0000.0001)     ;
(PID.TID 0000.0001) atmPhys_addTendU = /* apply Atm-Phys tendency to U momentum Eq.*/
(PID.TID 0000.0001)                   T
(PID.TID 0000.0001)     ;
(PID.TID 0000.0001) atmPhys_addTendV = /* apply Atm-Phys tendency to V momentum Eq.*/
(PID.TID 0000.0001)                   T
(PID.TID 0000.0001)     ;
(PID.TID 0000.0001) atmPhys_stepSST = /* step forward SST field */
(PID.TID 0000.0001)                   F
(PID.TID 0000.0001)     ;
(PID.TID 0000.0001) atmPhys_dampUVfac = /* U,V danping coefficient (1/s) */
(PID.TID 0000.0001)    20 @  0.000000000000000E+00,             /* K =  1: 20 */
(PID.TID 0000.0001)                 1.446759259259259E-06,      /* K = 21 */
(PID.TID 0000.0001)                 2.893518518518518E-06,      /* K = 22 */
(PID.TID 0000.0001)                 5.787037037037037E-06,      /* K = 23 */
(PID.TID 0000.0001)                 1.157407407407407E-05,      /* K = 24 */
(PID.TID 0000.0001)                 2.314814814814815E-05,      /* K = 25 */
(PID.TID 0000.0001)                 4.629629629629629E-05       /* K = 26 */
(PID.TID 0000.0001)     ;
(PID.TID 0000.0001) atmPhys_SSTFile = /* SST input file */
(PID.TID 0000.0001)               'SST_APE_1.bin'
(PID.TID 0000.0001)     ;
(PID.TID 0000.0001) atmPhys_QflxFile = /* Q-flux input file */
(PID.TID 0000.0001)               ''
(PID.TID 0000.0001)     ;
(PID.TID 0000.0001) 
(PID.TID 0000.0001) GAD_CHECK: #define ALLOW_GENERIC_ADVDIFF
(PID.TID 0000.0001) // =======================================================
(PID.TID 0000.0001) // Check Model config. (CONFIG_CHECK):
(PID.TID 0000.0001) // CONFIG_CHECK : Normal End
(PID.TID 0000.0001) // =======================================================
(PID.TID 0000.0001) 
(PID.TID 0000.0001) // =======================================================
(PID.TID 0000.0001) // Field Ocean mixed-layer depth on atmos grid at iteration          1
(PID.TID 0000.0001) // CMIN =          3.200000000000000E+01
(PID.TID 0000.0001) // CMAX =          3.200000000000000E+01
(PID.TID 0000.0001) // CINT =          0.000000000000000E+00
(PID.TID 0000.0001) // SYMBOLS (CMIN->CMAX): -abcdefghijklmnopqrstuvwxyz+
(PID.TID 0000.0001) //                  0.0: .
(PID.TID 0000.0001) // RANGE I (Lo:Hi:Step):(    -3:   196:     1)
(PID.TID 0000.0001) // RANGE J (Lo:Hi:Step):(    36:    -3:    -1)
(PID.TID 0000.0001) // RANGE K (Lo:Hi:Step):(   1:   1:   1)
(PID.TID 0000.0001) // =======================================================
(PID.TID 0000.0001) // =======================================================
(PID.TID 0000.0001) // END OF FIELD                                          =
(PID.TID 0000.0001) // =======================================================
(PID.TID 0000.0001) 
(PID.TID 0000.0001)  MDS_READ_FIELD: opening global file: ini_theta_26l.bin
(PID.TID 0000.0001)  MDS_READ_FIELD: opening global file: ini_specQ_26l.bin
(PID.TID 0000.0001) Start initial hydrostatic pressure computation
(PID.TID 0000.0001) Iteration   1, RMS-difference =  4.907418747971E+03
(PID.TID 0000.0001) Iteration   2, RMS-difference =  0.000000000000E+00
(PID.TID 0000.0001) Initial hydrostatic pressure converged.
(PID.TID 0000.0001) 
(PID.TID 0000.0001)  write diagnostics summary to file ioUnit:      6
Iter.Nb:         0 ; Time(s):  0.0000000000000E+00
------------------------------------------------------------------------
2D/3D diagnostics: Number of lists:     2
------------------------------------------------------------------------
listId=    1 ; file name: surfDiag
 nFlds, nActive,       freq     &     phase        , nLev               
   15  |   15  |    432000.000000         0.000000 |   1
 levels:   1
 diag# | name   |   ipt  |  iMate | kLev|   count |   mate.C|           
    23 |ETAN    |      1 |      0 |   1 |       0 |
    24 |ETANSQ  |      2 |      0 |   1 |       0 |
    25 |DETADT2 |      3 |      0 |   1 |       0 |
   195 |AtPhCnvP|      4 |      0 |   1 |       0 |
   196 |AtPhLscP|      5 |      0 |   1 |       0 |
   202 |AtPhSens|      6 |      0 |   1 |       0 |
   203 |AtPhEvap|      7 |      0 |   1 |       0 |
   204 |AtPhTauX|      8 |      0 |   1 |       0 |
   205 |AtPhTauY|      9 |      0 |   1 |       0 |
   188 |AtPh_SST|     10 |      0 |   1 |       0 |
   197 |AtPhInSR|     11 |      0 |   1 |       0 |
   198 |AtPhOLR |     12 |      0 |   1 |       0 |
   199 |AtPhNSSR|     13 |      0 |   1 |       0 |
   200 |AtPhDSLR|     14 |      0 |   1 |       0 |
   201 |AtPhUSLR|     15 |      0 |   1 |       0 |
------------------------------------------------------------------------
listId=    2 ; file name: dynDiag
 nFlds, nActive,       freq     &     phase        , nLev               
   14  |   14  |    432000.000000         0.000000 |  26
 levels:   1   2   3   4   5   6   7   8   9  10  11  12  13  14  15  16  17  18  19  20  21  22  23  24  25
 levels:  26
 diag# | name   |   ipt  |  iMate | kLev|   count |   mate.C|           
    29 |UVEL    |     16 |     42 |  26 |       0 |       0 |
    30 |VVEL    |     42 |     16 |  26 |       0 |       0 |
    31 |WVEL    |     68 |      0 |  26 |       0 |
    26 |THETA   |     94 |      0 |  26 |       0 |
    27 |SALT    |    120 |      0 |  26 |       0 |
    34 |UVELSQ  |    146 |    172 |  26 |       0 |       0 |
    35 |VVELSQ  |    172 |    146 |  26 |       0 |       0 |
    36 |WVELSQ  |    198 |      0 |  26 |       0 |
    32 |THETASQ |    224 |      0 |  26 |       0 |
    33 |SALTSQ  |    250 |      0 |  26 |       0 |
    43 |UVELMASS|    276 |    302 |  26 |       0 |       0 |
    44 |VVELMASS|    302 |    276 |  26 |       0 |       0 |
    39 |UV_VEL_C|    328 |    328 |  26 |       0 |       0 |
    28 |RELHUM  |    354 |      0 |  26 |       0 |
------------------------------------------------------------------------
Global & Regional Statistics diagnostics: Number of lists:     3
------------------------------------------------------------------------
listId=   1 ; file name: dynStDiag
 nFlds, nActive,       freq     &     phase        |                    
   11  |   11  |     43200.000000         0.000000 |
 Regions:   0
 diag# | name   |   ipt  |  iMate |    Volume   |   mate-Vol. |         
    23 |ETAN    |      1 |      0 | 0.00000E+00 |
    26 |THETA   |      2 |      0 | 0.00000E+00 |
    27 |SALT    |     28 |      0 | 0.00000E+00 |
    28 |RELHUM  |     54 |      0 | 0.00000E+00 |
    37 |UE_VEL_C|     80 |      0 | 0.00000E+00 |
    38 |VN_VEL_C|    106 |      0 | 0.00000E+00 |
    31 |WVEL    |    132 |      0 | 0.00000E+00 |
   189 |AtPhdTdt|    158 |      0 | 0.00000E+00 |
   190 |AtPhdQdt|    184 |      0 | 0.00000E+00 |
   191 |AtPhdUdt|    210 |      0 | 0.00000E+00 |
   192 |AtPhdVdt|    236 |      0 | 0.00000E+00 |
------------------------------------------------------------------------
listId=   2 ; file name: diffStDiag
 nFlds, nActive,       freq     &     phase        |                    
    7  |    7  |     43200.000000         0.000000 |
 Regions:   0
 diag# | name   |   ipt  |  iMate |    Volume   |   mate-Vol. |         
   193 |AtPhDifT|    262 |      0 | 0.00000E+00 |
   194 |AtPhDifM|    288 |      0 | 0.00000E+00 |
   208 |AtPhDisH|    314 |      0 | 0.00000E+00 |
   206 |AtPhdtTg|    340 |      0 | 0.00000E+00 |
   207 |AtPhdtQg|    366 |      0 | 0.00000E+00 |
   187 |SHAP_dKE|    392 |      0 | 0.00000E+00 |
    98 |MoistCor|    418 |      0 | 0.00000E+00 |
------------------------------------------------------------------------
listId=   3 ; file name: flxStDiag
 nFlds, nActive,       freq     &     phase        |                    
   12  |   12  |     43200.000000         0.000000 |
 Regions:   0
 diag# | name   |   ipt  |  iMate |    Volume   |   mate-Vol. |         
   202 |AtPhSens|    444 |      0 | 0.00000E+00 |
   203 |AtPhEvap|    445 |      0 | 0.00000E+00 |
   204 |AtPhTauX|    446 |      0 | 0.00000E+00 |
   205 |AtPhTauY|    447 |      0 | 0.00000E+00 |
   195 |AtPhCnvP|    448 |      0 | 0.00000E+00 |
   196 |AtPhLscP|    449 |      0 | 0.00000E+00 |
   188 |AtPh_SST|    450 |      0 | 0.00000E+00 |
   197 |AtPhInSR|    451 |      0 | 0.00000E+00 |
   198 |AtPhOLR |    452 |      0 | 0.00000E+00 |
   199 |AtPhNSSR|    453 |      0 | 0.00000E+00 |
   200 |AtPhDSLR|    454 |      0 | 0.00000E+00 |
   201 |AtPhUSLR|    455 |      0 | 0.00000E+00 |
------------------------------------------------------------------------
(PID.TID 0000.0001)  MDS_READ_FIELD: opening global file: SST_APE_1.bin
(PID.TID 0000.0001) // =======================================================
(PID.TID 0000.0001) // Model current state
(PID.TID 0000.0001) // =======================================================
(PID.TID 0000.0001) 
(PID.TID 0000.0001) // =======================================================
(PID.TID 0000.0001) // Begin MONITOR dynamic field statistics
(PID.TID 0000.0001) // =======================================================
(PID.TID 0000.0001) %MON time_tsnumber                =                     0
(PID.TID 0000.0001) %MON time_secondsf                =   0.0000000000000E+00
(PID.TID 0000.0001) %MON dynstat_eta_max              =   0.0000000000000E+00
(PID.TID 0000.0001) %MON dynstat_eta_min              =   0.0000000000000E+00
(PID.TID 0000.0001) %MON dynstat_eta_mean             =   0.0000000000000E+00
(PID.TID 0000.0001) %MON dynstat_eta_sd               =   0.0000000000000E+00
(PID.TID 0000.0001) %MON dynstat_eta_del2             =   0.0000000000000E+00
(PID.TID 0000.0001) %MON dynstat_uvel_max             =   0.0000000000000E+00
(PID.TID 0000.0001) %MON dynstat_uvel_min             =   0.0000000000000E+00
(PID.TID 0000.0001) %MON dynstat_uvel_mean            =   0.0000000000000E+00
(PID.TID 0000.0001) %MON dynstat_uvel_sd              =   0.0000000000000E+00
(PID.TID 0000.0001) %MON dynstat_uvel_del2            =   0.0000000000000E+00
(PID.TID 0000.0001) %MON dynstat_vvel_max             =   0.0000000000000E+00
(PID.TID 0000.0001) %MON dynstat_vvel_min             =   0.0000000000000E+00
(PID.TID 0000.0001) %MON dynstat_vvel_mean            =   0.0000000000000E+00
(PID.TID 0000.0001) %MON dynstat_vvel_sd              =   0.0000000000000E+00
(PID.TID 0000.0001) %MON dynstat_vvel_del2            =   0.0000000000000E+00
(PID.TID 0000.0001) %MON dynstat_wvel_max             =   0.0000000000000E+00
(PID.TID 0000.0001) %MON dynstat_wvel_min             =   0.0000000000000E+00
(PID.TID 0000.0001) %MON dynstat_wvel_mean            =   0.0000000000000E+00
(PID.TID 0000.0001) %MON dynstat_wvel_sd              =   0.0000000000000E+00
(PID.TID 0000.0001) %MON dynstat_wvel_del2            =   0.0000000000000E+00
(PID.TID 0000.0001) %MON dynstat_theta_max            =   1.1535634846852E+03
(PID.TID 0000.0001) %MON dynstat_theta_min            =   2.5507757432656E+02
(PID.TID 0000.0001) %MON dynstat_theta_mean           =   3.2787660662240E+02
(PID.TID 0000.0001) %MON dynstat_theta_sd             =   9.0371224687477E+01
(PID.TID 0000.0001) %MON dynstat_theta_del2           =   5.5192238657586E-04
(PID.TID 0000.0001) %MON dynstat_salt_max             =   2.0315162198281E-02
(PID.TID 0000.0001) %MON dynstat_salt_min             =   0.0000000000000E+00
(PID.TID 0000.0001) %MON dynstat_salt_mean            =   1.7953625902710E-03
(PID.TID 0000.0001) %MON dynstat_salt_sd              =   3.7984703449388E-03
(PID.TID 0000.0001) %MON dynstat_salt_del2            =   1.3625554215944E-07
(PID.TID 0000.0001) %MON advcfl_uvel_max              =   0.0000000000000E+00
(PID.TID 0000.0001) %MON advcfl_vvel_max              =   0.0000000000000E+00
(PID.TID 0000.0001) %MON advcfl_wvel_max              =   0.0000000000000E+00
(PID.TID 0000.0001) %MON advcfl_W_hf_max              =   0.0000000000000E+00
(PID.TID 0000.0001) %MON am_eta_mean                  =   0.0000000000000E+00
(PID.TID 0000.0001) %MON am_uZo_mean                  =   0.0000000000000E+00
(PID.TID 0000.0001) %MON am_tot_mean                  =   0.0000000000000E+00
(PID.TID 0000.0001) %MON pe_b_mean                    =   0.0000000000000E+00
(PID.TID 0000.0001) %MON ke_max                       =   0.0000000000000E+00
(PID.TID 0000.0001) %MON ke_mean                      =   0.0000000000000E+00
(PID.TID 0000.0001) %MON ke_vol                       =   5.0986421042785E+19
(PID.TID 0000.0001) %MON vort_r_min                   =   0.0000000000000E+00
(PID.TID 0000.0001) %MON vort_r_max                   =   0.0000000000000E+00
(PID.TID 0000.0001) %MON vort_a_mean                  =  -2.4513551737851E-21
(PID.TID 0000.0001) %MON vort_a_sd                    =   8.4202189509969E-05
(PID.TID 0000.0001) %MON vort_p_mean                  =  -2.4513551737851E-21
(PID.TID 0000.0001) %MON vort_p_sd                    =   8.4202189509969E-05
(PID.TID 0000.0001) %MON surfExpan_theta_mean         =   0.0000000000000E+00
(PID.TID 0000.0001) %MON surfExpan_salt_mean          =   0.0000000000000E+00
(PID.TID 0000.0001) %MON surfExpan_Heat_mean          =   0.0000000000000E+00
(PID.TID 0000.0001) %MON En_Budget_T2PE_mean          =   0.0000000000000E+00
(PID.TID 0000.0001) // =======================================================
(PID.TID 0000.0001) // End MONITOR dynamic field statistics
(PID.TID 0000.0001) // =======================================================
(PID.TID 0000.0001)   Exporting atmospheric fluxes at iter.         0
(PID.TID 0000.0001)   Importing oceanic fields at iteration         0
(PID.TID 0000.0001) SURFACE_FLUX_INIT: opening data.atm_gray
(PID.TID 0000.0001)  OPEN_COPY_DATA_FILE: opening file data.atm_gray
(PID.TID 0000.0001) // =======================================================
(PID.TID 0000.0001) // Parameter file "data.atm_gray"
(PID.TID 0000.0001) // =======================================================
(PID.TID 0000.0001) >
(PID.TID 0000.0001) > &atmosphere_nml
(PID.TID 0000.0001) >    turb = .TRUE.,
(PID.TID 0000.0001) >    ldry_convection = .false.,
(PID.TID 0000.0001) >    lwet_convection = .TRUE.,
(PID.TID 0000.0001) >    do_virtual = .false.,
(PID.TID 0000.0001) >    two_stream = .true.,
(PID.TID 0000.0001) >    mixed_layer_bc = .false.,
(PID.TID 0000.0001) >    roughness_heat = 0.05,
(PID.TID 0000.0001) >    roughness_moist = 0.05,
(PID.TID 0000.0001) >    roughness_mom = 0.05,
(PID.TID 0000.0001) > /
(PID.TID 0000.0001) >
(PID.TID 0000.0001) > &radiation_nml
(PID.TID 0000.0001) >  solar_constant= 1365.,
(PID.TID 0000.0001) >  del_sol=1.,
(PID.TID 0000.0001) ># ir_tau_eq=
(PID.TID 0000.0001) ># ir_tau_pole=
(PID.TID 0000.0001) >  atm_abs= 0.22,
(PID.TID 0000.0001) ># value that Ruth is using as default:
(PID.TID 0000.0001) ># atm_abs= 0.2486,
(PID.TID 0000.0001) ># sw_diff=
(PID.TID 0000.0001) ># linear_tau=
(PID.TID 0000.0001) ># del_sw=
(PID.TID 0000.0001) >  albedo_value=0.38,
(PID.TID 0000.0001) ># window=
(PID.TID 0000.0001) ># wv_exponent=
(PID.TID 0000.0001) ># solar_exponent=
(PID.TID 0000.0001) >  wv_exponent=0.,
(PID.TID 0000.0001) > /
(PID.TID 0000.0001) >
(PID.TID 0000.0001) > &lscale_cond_nml
(PID.TID 0000.0001) ># hc =
(PID.TID 0000.0001) ># do_evap=
(PID.TID 0000.0001) > /
(PID.TID 0000.0001) >
(PID.TID 0000.0001) > &dargan_bettsmiller_nml
(PID.TID 0000.0001) >#  tau_bm =,
(PID.TID 0000.0001) >#  rhbm =,
(PID.TID 0000.0001) >#  do_shallower=,
(PID.TID 0000.0001) >#  do_changeqref=,
(PID.TID 0000.0001) >#  do_envsat=,
(PID.TID 0000.0001) >#  do_taucape=,
(PID.TID 0000.0001) >#  capetaubm=,
(PID.TID 0000.0001) >#  tau_min =,
(PID.TID 0000.0001) >#  do_virtual=,
(PID.TID 0000.0001) >#  do_bm_shift=,
(PID.TID 0000.0001) > /
(PID.TID 0000.0001) >
(PID.TID 0000.0001) > &surface_flux_nml
(PID.TID 0000.0001) > /
(PID.TID 0000.0001) >
(PID.TID 0000.0001) > &vert_turb_driver_nml
(PID.TID 0000.0001) >#  do_shallow_conv, do_mellor_yamada,
(PID.TID 0000.0001) >#  gust_scheme, constant_gust, use_tau,
(PID.TID 0000.0001) >#  do_molecular_diffusion
(PID.TID 0000.0001) >  do_mellor_yamada=.FALSE.,
(PID.TID 0000.0001) > /
(PID.TID 0000.0001) >
(PID.TID 0000.0001) > &diffusivity_nml
(PID.TID 0000.0001) >#  fixed_depth, depth_0, frac_inner,
(PID.TID 0000.0001) >#  rich_crit_pbl, entr_ratio, parcel_buoy,
(PID.TID 0000.0001) >#  znom, free_atm_diff, free_atm_skyhi_diff,
(PID.TID 0000.0001) >#  pbl_mcm, rich_crit_diff, mix_len, rich_prandtl,
(PID.TID 0000.0001) >#  background_m, background_t, ampns, ampns_max,
(PID.TID 0000.0001) >#  do_virtual_non_mcm
(PID.TID 0000.0001) > /
(PID.TID 0000.0001) >
(PID.TID 0000.0001) > &monin_obukhov_nml
(PID.TID 0000.0001) > /
(PID.TID 0000.0001) >
(PID.TID 0000.0001) > &my25_turb_nml
(PID.TID 0000.0001) > /
(PID.TID 0000.0001) >
(PID.TID 0000.0001) > &shallow_conv_nml
(PID.TID 0000.0001) > /
(PID.TID 0000.0001) >
(PID.TID 0000.0001) > &mixed_layer_nml
(PID.TID 0000.0001) ># evaporation, qflux_amp, depth, qflux_width
(PID.TID 0000.0001) >  depth=5000.,
(PID.TID 0000.0001) > /
(PID.TID 0000.0001) 
(PID.TID 0000.0001) SURFACE_FLUX_INIT: finished reading data.atm_gray
(PID.TID 0000.0001) MONIN_OBUKHOV_INIT: opening data.atm_gray
(PID.TID 0000.0001)  OPEN_COPY_DATA_FILE: opening file data.atm_gray
(PID.TID 0000.0001) // =======================================================
(PID.TID 0000.0001) // Parameter file "data.atm_gray"
(PID.TID 0000.0001) // =======================================================
(PID.TID 0000.0001) >
(PID.TID 0000.0001) > &atmosphere_nml
(PID.TID 0000.0001) >    turb = .TRUE.,
(PID.TID 0000.0001) >    ldry_convection = .false.,
(PID.TID 0000.0001) >    lwet_convection = .TRUE.,
(PID.TID 0000.0001) >    do_virtual = .false.,
(PID.TID 0000.0001) >    two_stream = .true.,
(PID.TID 0000.0001) >    mixed_layer_bc = .false.,
(PID.TID 0000.0001) >    roughness_heat = 0.05,
(PID.TID 0000.0001) >    roughness_moist = 0.05,
(PID.TID 0000.0001) >    roughness_mom = 0.05,
(PID.TID 0000.0001) > /
(PID.TID 0000.0001) >
(PID.TID 0000.0001) > &radiation_nml
(PID.TID 0000.0001) >  solar_constant= 1365.,
(PID.TID 0000.0001) >  del_sol=1.,
(PID.TID 0000.0001) ># ir_tau_eq=
(PID.TID 0000.0001) ># ir_tau_pole=
(PID.TID 0000.0001) >  atm_abs= 0.22,
(PID.TID 0000.0001) ># value that Ruth is using as default:
(PID.TID 0000.0001) ># atm_abs= 0.2486,
(PID.TID 0000.0001) ># sw_diff=
(PID.TID 0000.0001) ># linear_tau=
(PID.TID 0000.0001) ># del_sw=
(PID.TID 0000.0001) >  albedo_value=0.38,
(PID.TID 0000.0001) ># window=
(PID.TID 0000.0001) ># wv_exponent=
(PID.TID 0000.0001) ># solar_exponent=
(PID.TID 0000.0001) >  wv_exponent=0.,
(PID.TID 0000.0001) > /
(PID.TID 0000.0001) >
(PID.TID 0000.0001) > &lscale_cond_nml
(PID.TID 0000.0001) ># hc =
(PID.TID 0000.0001) ># do_evap=
(PID.TID 0000.0001) > /
(PID.TID 0000.0001) >
(PID.TID 0000.0001) > &dargan_bettsmiller_nml
(PID.TID 0000.0001) >#  tau_bm =,
(PID.TID 0000.0001) >#  rhbm =,
(PID.TID 0000.0001) >#  do_shallower=,
(PID.TID 0000.0001) >#  do_changeqref=,
(PID.TID 0000.0001) >#  do_envsat=,
(PID.TID 0000.0001) >#  do_taucape=,
(PID.TID 0000.0001) >#  capetaubm=,
(PID.TID 0000.0001) >#  tau_min =,
(PID.TID 0000.0001) >#  do_virtual=,
(PID.TID 0000.0001) >#  do_bm_shift=,
(PID.TID 0000.0001) > /
(PID.TID 0000.0001) >
(PID.TID 0000.0001) > &surface_flux_nml
(PID.TID 0000.0001) > /
(PID.TID 0000.0001) >
(PID.TID 0000.0001) > &vert_turb_driver_nml
(PID.TID 0000.0001) >#  do_shallow_conv, do_mellor_yamada,
(PID.TID 0000.0001) >#  gust_scheme, constant_gust, use_tau,
(PID.TID 0000.0001) >#  do_molecular_diffusion
(PID.TID 0000.0001) >  do_mellor_yamada=.FALSE.,
(PID.TID 0000.0001) > /
(PID.TID 0000.0001) >
(PID.TID 0000.0001) > &diffusivity_nml
(PID.TID 0000.0001) >#  fixed_depth, depth_0, frac_inner,
(PID.TID 0000.0001) >#  rich_crit_pbl, entr_ratio, parcel_buoy,
(PID.TID 0000.0001) >#  znom, free_atm_diff, free_atm_skyhi_diff,
(PID.TID 0000.0001) >#  pbl_mcm, rich_crit_diff, mix_len, rich_prandtl,
(PID.TID 0000.0001) >#  background_m, background_t, ampns, ampns_max,
(PID.TID 0000.0001) >#  do_virtual_non_mcm
(PID.TID 0000.0001) > /
(PID.TID 0000.0001) >
(PID.TID 0000.0001) > &monin_obukhov_nml
(PID.TID 0000.0001) > /
(PID.TID 0000.0001) >
(PID.TID 0000.0001) > &my25_turb_nml
(PID.TID 0000.0001) > /
(PID.TID 0000.0001) >
(PID.TID 0000.0001) > &shallow_conv_nml
(PID.TID 0000.0001) > /
(PID.TID 0000.0001) >
(PID.TID 0000.0001) > &mixed_layer_nml
(PID.TID 0000.0001) ># evaporation, qflux_amp, depth, qflux_width
(PID.TID 0000.0001) >  depth=5000.,
(PID.TID 0000.0001) > /
(PID.TID 0000.0001) 
(PID.TID 0000.0001) MONIN_OBUKHOV_INIT: finished reading data.atm_gray
(PID.TID 0000.0001) DIFFUSIVITY_INIT: opening data.atm_gray
(PID.TID 0000.0001)  OPEN_COPY_DATA_FILE: opening file data.atm_gray
(PID.TID 0000.0001) // =======================================================
(PID.TID 0000.0001) // Parameter file "data.atm_gray"
(PID.TID 0000.0001) // =======================================================
(PID.TID 0000.0001) >
(PID.TID 0000.0001) > &atmosphere_nml
(PID.TID 0000.0001) >    turb = .TRUE.,
(PID.TID 0000.0001) >    ldry_convection = .false.,
(PID.TID 0000.0001) >    lwet_convection = .TRUE.,
(PID.TID 0000.0001) >    do_virtual = .false.,
(PID.TID 0000.0001) >    two_stream = .true.,
(PID.TID 0000.0001) >    mixed_layer_bc = .false.,
(PID.TID 0000.0001) >    roughness_heat = 0.05,
(PID.TID 0000.0001) >    roughness_moist = 0.05,
(PID.TID 0000.0001) >    roughness_mom = 0.05,
(PID.TID 0000.0001) > /
(PID.TID 0000.0001) >
(PID.TID 0000.0001) > &radiation_nml
(PID.TID 0000.0001) >  solar_constant= 1365.,
(PID.TID 0000.0001) >  del_sol=1.,
(PID.TID 0000.0001) ># ir_tau_eq=
(PID.TID 0000.0001) ># ir_tau_pole=
(PID.TID 0000.0001) >  atm_abs= 0.22,
(PID.TID 0000.0001) ># value that Ruth is using as default:
(PID.TID 0000.0001) ># atm_abs= 0.2486,
(PID.TID 0000.0001) ># sw_diff=
(PID.TID 0000.0001) ># linear_tau=
(PID.TID 0000.0001) ># del_sw=
(PID.TID 0000.0001) >  albedo_value=0.38,
(PID.TID 0000.0001) ># window=
(PID.TID 0000.0001) ># wv_exponent=
(PID.TID 0000.0001) ># solar_exponent=
(PID.TID 0000.0001) >  wv_exponent=0.,
(PID.TID 0000.0001) > /
(PID.TID 0000.0001) >
(PID.TID 0000.0001) > &lscale_cond_nml
(PID.TID 0000.0001) ># hc =
(PID.TID 0000.0001) ># do_evap=
(PID.TID 0000.0001) > /
(PID.TID 0000.0001) >
(PID.TID 0000.0001) > &dargan_bettsmiller_nml
(PID.TID 0000.0001) >#  tau_bm =,
(PID.TID 0000.0001) >#  rhbm =,
(PID.TID 0000.0001) >#  do_shallower=,
(PID.TID 0000.0001) >#  do_changeqref=,
(PID.TID 0000.0001) >#  do_envsat=,
(PID.TID 0000.0001) >#  do_taucape=,
(PID.TID 0000.0001) >#  capetaubm=,
(PID.TID 0000.0001) >#  tau_min =,
(PID.TID 0000.0001) >#  do_virtual=,
(PID.TID 0000.0001) >#  do_bm_shift=,
(PID.TID 0000.0001) > /
(PID.TID 0000.0001) >
(PID.TID 0000.0001) > &surface_flux_nml
(PID.TID 0000.0001) > /
(PID.TID 0000.0001) >
(PID.TID 0000.0001) > &vert_turb_driver_nml
(PID.TID 0000.0001) >#  do_shallow_conv, do_mellor_yamada,
(PID.TID 0000.0001) >#  gust_scheme, constant_gust, use_tau,
(PID.TID 0000.0001) >#  do_molecular_diffusion
(PID.TID 0000.0001) >  do_mellor_yamada=.FALSE.,
(PID.TID 0000.0001) > /
(PID.TID 0000.0001) >
(PID.TID 0000.0001) > &diffusivity_nml
(PID.TID 0000.0001) >#  fixed_depth, depth_0, frac_inner,
(PID.TID 0000.0001) >#  rich_crit_pbl, entr_ratio, parcel_buoy,
(PID.TID 0000.0001) >#  znom, free_atm_diff, free_atm_skyhi_diff,
(PID.TID 0000.0001) >#  pbl_mcm, rich_crit_diff, mix_len, rich_prandtl,
(PID.TID 0000.0001) >#  background_m, background_t, ampns, ampns_max,
(PID.TID 0000.0001) >#  do_virtual_non_mcm
(PID.TID 0000.0001) > /
(PID.TID 0000.0001) >
(PID.TID 0000.0001) > &monin_obukhov_nml
(PID.TID 0000.0001) > /
(PID.TID 0000.0001) >
(PID.TID 0000.0001) > &my25_turb_nml
(PID.TID 0000.0001) > /
(PID.TID 0000.0001) >
(PID.TID 0000.0001) > &shallow_conv_nml
(PID.TID 0000.0001) > /
(PID.TID 0000.0001) >
(PID.TID 0000.0001) > &mixed_layer_nml
(PID.TID 0000.0001) ># evaporation, qflux_amp, depth, qflux_width
(PID.TID 0000.0001) >  depth=5000.,
(PID.TID 0000.0001) > /
(PID.TID 0000.0001) 
(PID.TID 0000.0001) DIFFUSIVITY_INIT: finished reading data.atm_gray
(PID.TID 0000.0001) SOLVE_FOR_PRESSURE: putPmEinXvector =    F
 cg2d: Sum(rhs),rhsMax =  -2.03726813197136E-10  1.15643245709389E+02
(PID.TID 0000.0001)      cg2d_init_res =   3.76284312959006E+03
(PID.TID 0000.0001)      cg2d_iters(min,last) =      -1      12
(PID.TID 0000.0001)      cg2d_last_res =   5.53427932929897E-11
(PID.TID 0000.0001) // =======================================================
(PID.TID 0000.0001) // Begin MONITOR dynamic field statistics
(PID.TID 0000.0001) // =======================================================
(PID.TID 0000.0001) %MON time_tsnumber                =                     1
(PID.TID 0000.0001) %MON time_secondsf                =   3.6000000000000E+02
(PID.TID 0000.0001) %MON dynstat_eta_max              =   1.4279177601168E+01
(PID.TID 0000.0001) %MON dynstat_eta_min              =  -8.7978186035699E+00
(PID.TID 0000.0001) %MON dynstat_eta_mean             =   1.1715537610143E-15
(PID.TID 0000.0001) %MON dynstat_eta_sd               =   7.0826410630125E+00
(PID.TID 0000.0001) %MON dynstat_eta_del2             =   3.6116162885768E-02
(PID.TID 0000.0001) %MON dynstat_uvel_max             =   1.3016800146121E+00
(PID.TID 0000.0001) %MON dynstat_uvel_min             =  -1.3016800146121E+00
(PID.TID 0000.0001) %MON dynstat_uvel_mean            =  -6.2761808625767E-18
(PID.TID 0000.0001) %MON dynstat_uvel_sd              =   4.2127420517919E-01
(PID.TID 0000.0001) %MON dynstat_uvel_del2            =   1.0799549628826E-04
(PID.TID 0000.0001) %MON dynstat_vvel_max             =   1.3016800146121E+00
(PID.TID 0000.0001) %MON dynstat_vvel_min             =  -1.3016800146121E+00
(PID.TID 0000.0001) %MON dynstat_vvel_mean            =   5.0209446900613E-18
(PID.TID 0000.0001) %MON dynstat_vvel_sd              =   4.2127420517919E-01
(PID.TID 0000.0001) %MON dynstat_vvel_del2            =   1.0799549628826E-04
(PID.TID 0000.0001) %MON dynstat_wvel_max             =   1.7170597841976E-02
(PID.TID 0000.0001) %MON dynstat_wvel_min             =  -1.4115125359214E-02
(PID.TID 0000.0001) %MON dynstat_wvel_mean            =   3.4594063862754E-18
(PID.TID 0000.0001) %MON dynstat_wvel_sd              =   4.2423217473424E-03
(PID.TID 0000.0001) %MON dynstat_wvel_del2            =   8.6997822494988E-06
(PID.TID 0000.0001) %MON dynstat_theta_max            =   1.1536174751748E+03
(PID.TID 0000.0001) %MON dynstat_theta_min            =   2.5512160273625E+02
(PID.TID 0000.0001) %MON dynstat_theta_mean           =   3.2787649860350E+02
(PID.TID 0000.0001) %MON dynstat_theta_sd             =   9.0371929755072E+01
(PID.TID 0000.0001) %MON dynstat_theta_del2           =   5.5170148585484E-04
(PID.TID 0000.0001) %MON dynstat_salt_max             =   2.0315407882426E-02
(PID.TID 0000.0001) %MON dynstat_salt_min             =   0.0000000000000E+00
(PID.TID 0000.0001) %MON dynstat_salt_mean            =   1.7995564724389E-03
(PID.TID 0000.0001) %MON dynstat_salt_sd              =   3.8012117686634E-03
(PID.TID 0000.0001) %MON dynstat_salt_del2            =   1.5474886955111E-07
(PID.TID 0000.0001) %MON advcfl_uvel_max              =   3.4356045491986E-03
(PID.TID 0000.0001) %MON advcfl_vvel_max              =   3.4356045491986E-03
(PID.TID 0000.0001) %MON advcfl_wvel_max              =   1.2513369344864E-03
(PID.TID 0000.0001) %MON advcfl_W_hf_max              =   1.3788457929456E-03
(PID.TID 0000.0001) %MON am_eta_mean                  =   0.0000000000000E+00
(PID.TID 0000.0001) %MON am_uZo_mean                  =  -2.7753323008443E-08
(PID.TID 0000.0001) %MON am_tot_mean                  =  -2.7753323008443E-08
(PID.TID 0000.0001) %MON pe_b_mean                    =   2.1245751682932E-04
(PID.TID 0000.0001) %MON ke_max                       =   8.5367290608321E-01
(PID.TID 0000.0001) %MON ke_mean                      =   1.7747195594936E-01
(PID.TID 0000.0001) %MON ke_vol                       =   5.0986421042785E+19
(PID.TID 0000.0001) %MON vort_r_min                   =  -3.1534869439159E-08
(PID.TID 0000.0001) %MON vort_r_max                   =   3.1534869439159E-08
(PID.TID 0000.0001) %MON vort_a_mean                  =   7.3540655213554E-21
(PID.TID 0000.0001) %MON vort_a_sd                    =   8.4202189512624E-05
(PID.TID 0000.0001) %MON vort_p_mean                  =   7.3540655213554E-21
(PID.TID 0000.0001) %MON vort_p_sd                    =   8.4202189512624E-05
(PID.TID 0000.0001) %MON surfExpan_theta_mean         =  -2.8165735964103E-01
(PID.TID 0000.0001) %MON surfExpan_salt_mean          =  -2.6045821483747E-05
(PID.TID 0000.0001) %MON surfExpan_Heat_mean          =  -2.4699565201938E+01
(PID.TID 0000.0001) %MON En_Budget_T2PE_mean          =   2.8651878388664E+00
(PID.TID 0000.0001) // =======================================================
(PID.TID 0000.0001) // End MONITOR dynamic field statistics
(PID.TID 0000.0001) // =======================================================
 cg2d: Sum(rhs),rhsMax =  -8.73114913702011E-11  3.16764633211814E+02
(PID.TID 0000.0001)      cg2d_init_res =   7.45993864206015E+03
(PID.TID 0000.0001)      cg2d_iters(min,last) =      -1      12
(PID.TID 0000.0001)      cg2d_last_res =   8.50521451605853E-11
(PID.TID 0000.0001) // =======================================================
(PID.TID 0000.0001) // Begin MONITOR dynamic field statistics
(PID.TID 0000.0001) // =======================================================
(PID.TID 0000.0001) %MON time_tsnumber                =                     2
(PID.TID 0000.0001) %MON time_secondsf                =   7.2000000000000E+02
(PID.TID 0000.0001) %MON dynstat_eta_max              =   4.0779837426537E+01
(PID.TID 0000.0001) %MON dynstat_eta_min              =  -2.6347278324034E+01
(PID.TID 0000.0001) %MON dynstat_eta_mean             =   4.0167557520491E-15
(PID.TID 0000.0001) %MON dynstat_eta_sd               =   2.1159577508044E+01
(PID.TID 0000.0001) %MON dynstat_eta_del2             =   8.2634156290033E-02
(PID.TID 0000.0001) %MON dynstat_uvel_max             =   2.5959046404148E+00
(PID.TID 0000.0001) %MON dynstat_uvel_min             =  -2.5961538068203E+00
(PID.TID 0000.0001) %MON dynstat_uvel_mean            =   5.0956700723384E-03
(PID.TID 0000.0001) %MON dynstat_uvel_sd              =   8.4129669375198E-01
(PID.TID 0000.0001) %MON dynstat_uvel_del2            =   2.0792000617071E-04
(PID.TID 0000.0001) %MON dynstat_vvel_max             =   2.5961347838152E+00
(PID.TID 0000.0001) %MON dynstat_vvel_min             =  -2.5960424831548E+00
(PID.TID 0000.0001) %MON dynstat_vvel_mean            =   5.1066445231017E-03
(PID.TID 0000.0001) %MON dynstat_vvel_sd              =   8.4129762396323E-01
(PID.TID 0000.0001) %MON dynstat_vvel_del2            =   2.0794421966437E-04
(PID.TID 0000.0001) %MON dynstat_wvel_max             =   3.2995431224864E-02
(PID.TID 0000.0001) %MON dynstat_wvel_min             =  -2.9348122668628E-02
(PID.TID 0000.0001) %MON dynstat_wvel_mean            =  -9.1202532001805E-18
(PID.TID 0000.0001) %MON dynstat_wvel_sd              =   8.4379471180394E-03
(PID.TID 0000.0001) %MON dynstat_wvel_del2            =   1.6138436185795E-05
(PID.TID 0000.0001) %MON dynstat_theta_max            =   1.1536948919829E+03
(PID.TID 0000.0001) %MON dynstat_theta_min            =   2.5519990396125E+02
(PID.TID 0000.0001) %MON dynstat_theta_mean           =   3.2787699236702E+02
(PID.TID 0000.0001) %MON dynstat_theta_sd             =   9.0372399150794E+01
(PID.TID 0000.0001) %MON dynstat_theta_del2           =   5.5404539679699E-04
(PID.TID 0000.0001) %MON dynstat_salt_max             =   2.0315653703361E-02
(PID.TID 0000.0001) %MON dynstat_salt_min             =   0.0000000000000E+00
(PID.TID 0000.0001) %MON dynstat_salt_mean            =   1.8036509184465E-03
(PID.TID 0000.0001) %MON dynstat_salt_sd              =   3.8037396861209E-03
(PID.TID 0000.0001) %MON dynstat_salt_del2            =   1.8260902974935E-07
(PID.TID 0000.0001) %MON advcfl_uvel_max              =   7.0527751209535E-03
(PID.TID 0000.0001) %MON advcfl_vvel_max              =   7.0527090676910E-03
(PID.TID 0000.0001) %MON advcfl_wvel_max              =   2.2831358706980E-03
(PID.TID 0000.0001) %MON advcfl_W_hf_max              =   2.5156259749241E-03
(PID.TID 0000.0001) %MON am_eta_mean                  =  -6.2347056404663E+08
(PID.TID 0000.0001) %MON am_uZo_mean                  =   6.2373480997402E+08
(PID.TID 0000.0001) %MON am_tot_mean                  =   2.6424592738831E+05
(PID.TID 0000.0001) %MON pe_b_mean                    =   1.8962501102193E-03
(PID.TID 0000.0001) %MON ke_max                       =   3.4101840568020E+00
(PID.TID 0000.0001) %MON ke_mean                      =   7.0780693133798E-01
(PID.TID 0000.0001) %MON ke_vol                       =   5.0986421042785E+19
(PID.TID 0000.0001) %MON vort_r_min                   =  -1.0860917108765E-07
(PID.TID 0000.0001) %MON vort_r_max                   =   1.0860939749164E-07
(PID.TID 0000.0001) %MON vort_a_mean                  =  -5.3929813823273E-20
(PID.TID 0000.0001) %MON vort_a_sd                    =   8.4206364615999E-05
(PID.TID 0000.0001) %MON vort_p_mean                  =  -5.1478458459845E-20
(PID.TID 0000.0001) %MON vort_p_sd                    =   8.4203755438755E-05
(PID.TID 0000.0001) %MON surfExpan_theta_mean         =  -5.6150044004228E-01
(PID.TID 0000.0001) %MON surfExpan_salt_mean          =  -5.1881849418391E-05
(PID.TID 0000.0001) %MON surfExpan_Heat_mean          =  -4.9242592160963E+01
(PID.TID 0000.0001) %MON En_Budget_T2PE_mean          =   5.7215086786398E+00
(PID.TID 0000.0001) // =======================================================
(PID.TID 0000.0001) // End MONITOR dynamic field statistics
(PID.TID 0000.0001) // =======================================================
 cg2d: Sum(rhs),rhsMax =   3.49245965480804E-10  6.03444596549648E+02
(PID.TID 0000.0001)      cg2d_init_res =   1.11074408035014E+04
(PID.TID 0000.0001)      cg2d_iters(min,last) =      -1      12
(PID.TID 0000.0001)      cg2d_last_res =   9.75714512539570E-11
(PID.TID 0000.0001) // =======================================================
(PID.TID 0000.0001) // Begin MONITOR dynamic field statistics
(PID.TID 0000.0001) // =======================================================
(PID.TID 0000.0001) %MON time_tsnumber                =                     3
(PID.TID 0000.0001) %MON time_secondsf                =   1.0800000000000E+03
(PID.TID 0000.0001) %MON dynstat_eta_max              =   7.7743227331666E+01
(PID.TID 0000.0001) %MON dynstat_eta_min              =  -5.2575736090176E+01
(PID.TID 0000.0001) %MON dynstat_eta_mean             =  -1.3389185840164E-15
(PID.TID 0000.0001) %MON dynstat_eta_sd               =   4.2134839456949E+01
(PID.TID 0000.0001) %MON dynstat_eta_del2             =   1.2422971001394E-01
(PID.TID 0000.0001) %MON dynstat_uvel_max             =   3.8777663398345E+00
(PID.TID 0000.0001) %MON dynstat_uvel_min             =  -3.8784149026318E+00
(PID.TID 0000.0001) %MON dynstat_uvel_mean            =   1.3346430606599E-02
(PID.TID 0000.0001) %MON dynstat_uvel_sd              =   1.2587913853015E+00
(PID.TID 0000.0001) %MON dynstat_uvel_del2            =   2.9955632590282E-04
(PID.TID 0000.0001) %MON dynstat_vvel_max             =   3.8783833087647E+00
(PID.TID 0000.0001) %MON dynstat_vvel_min             =  -3.8781349023355E+00
(PID.TID 0000.0001) %MON dynstat_vvel_mean            =   1.3379063181952E-02
(PID.TID 0000.0001) %MON dynstat_vvel_sd              =   1.2587944741575E+00
(PID.TID 0000.0001) %MON dynstat_vvel_del2            =   2.9961015815440E-04
(PID.TID 0000.0001) %MON dynstat_wvel_max             =   4.6730768512651E-02
(PID.TID 0000.0001) %MON dynstat_wvel_min             =  -4.2943833869201E-02
(PID.TID 0000.0001) %MON dynstat_wvel_mean            =  -1.2894151076117E-17
(PID.TID 0000.0001) %MON dynstat_wvel_sd              =   1.2549603263793E-02
(PID.TID 0000.0001) %MON dynstat_wvel_del2            =   2.1605180358016E-05
(PID.TID 0000.0001) %MON dynstat_theta_max            =   1.1537627752664E+03
(PID.TID 0000.0001) %MON dynstat_theta_min            =   2.5532867562903E+02
(PID.TID 0000.0001) %MON dynstat_theta_mean           =   3.2787824099642E+02
(PID.TID 0000.0001) %MON dynstat_theta_sd             =   9.0372286854785E+01
(PID.TID 0000.0001) %MON dynstat_theta_del2           =   5.5840885013858E-04
(PID.TID 0000.0001) %MON dynstat_salt_max             =   2.0315899728289E-02
(PID.TID 0000.0001) %MON dynstat_salt_min             =   0.0000000000000E+00
(PID.TID 0000.0001) %MON dynstat_salt_mean            =   1.8074301751182E-03
(PID.TID 0000.0001) %MON dynstat_salt_sd              =   3.8063146960989E-03
(PID.TID 0000.0001) %MON dynstat_salt_del2            =   2.1608682028253E-07
(PID.TID 0000.0001) %MON advcfl_uvel_max              =   1.0741632696948E-02
(PID.TID 0000.0001) %MON advcfl_vvel_max              =   1.0741435525785E-02
(PID.TID 0000.0001) %MON advcfl_wvel_max              =   2.9884507184539E-03
(PID.TID 0000.0001) %MON advcfl_W_hf_max              =   3.2924614525009E-03
(PID.TID 0000.0001) %MON am_eta_mean                  =  -1.8676941015629E+09
(PID.TID 0000.0001) %MON am_uZo_mean                  =   1.8681827880680E+09
(PID.TID 0000.0001) %MON am_tot_mean                  =   4.8868650509214E+05
(PID.TID 0000.0001) %MON pe_b_mean                    =   7.5190733626865E-03
(PID.TID 0000.0001) %MON ke_max                       =   7.6309883945161E+00
(PID.TID 0000.0001) %MON ke_mean                      =   1.5847382032101E+00
(PID.TID 0000.0001) %MON ke_vol                       =   5.0986421042785E+19
(PID.TID 0000.0001) %MON vort_r_min                   =  -2.2154793294977E-07
(PID.TID 0000.0001) %MON vort_r_max                   =   2.2162516695971E-07
(PID.TID 0000.0001) %MON vort_a_mean                  =   1.8630299320767E-19
(PID.TID 0000.0001) %MON vort_a_sd                    =   8.4213133077104E-05
(PID.TID 0000.0001) %MON vort_p_mean                  =   1.8630299101916E-19
(PID.TID 0000.0001) %MON vort_p_sd                    =   8.4205315039091E-05
(PID.TID 0000.0001) %MON surfExpan_theta_mean         =  -8.3809887040565E-01
(PID.TID 0000.0001) %MON surfExpan_salt_mean          =  -7.7436283483811E-05
(PID.TID 0000.0001) %MON surfExpan_Heat_mean          =  -7.3507079090089E+01
(PID.TID 0000.0001) %MON En_Budget_T2PE_mean          =   8.5578023583669E+00
(PID.TID 0000.0001) // =======================================================
(PID.TID 0000.0001) // End MONITOR dynamic field statistics
(PID.TID 0000.0001) // =======================================================
 cg2d: Sum(rhs),rhsMax =  -2.32830643653870E-10  9.99868931704095E+02
(PID.TID 0000.0001)      cg2d_init_res =   1.47144364015154E+04
(PID.TID 0000.0001)      cg2d_iters(min,last) =      -1      12
(PID.TID 0000.0001)      cg2d_last_res =   1.05407392031329E-10
(PID.TID 0000.0001) // =======================================================
(PID.TID 0000.0001) // Begin MONITOR dynamic field statistics
(PID.TID 0000.0001) // =======================================================
(PID.TID 0000.0001) %MON time_tsnumber                =                     4
(PID.TID 0000.0001) %MON time_secondsf                =   1.4400000000000E+03
(PID.TID 0000.0001) %MON dynstat_eta_max              =   1.2461062784906E+02
(PID.TID 0000.0001) %MON dynstat_eta_min              =  -8.7386045990364E+01
(PID.TID 0000.0001) %MON dynstat_eta_mean             =   8.0335115040981E-15
(PID.TID 0000.0001) %MON dynstat_eta_sd               =   6.9920818855617E+01
(PID.TID 0000.0001) %MON dynstat_eta_del2             =   1.5780960217036E-01
(PID.TID 0000.0001) %MON dynstat_uvel_max             =   5.1485632498129E+00
(PID.TID 0000.0001) %MON dynstat_uvel_min             =  -5.1498997997013E+00
(PID.TID 0000.0001) %MON dynstat_uvel_mean            =   2.4713239374109E-02
(PID.TID 0000.0001) %MON dynstat_uvel_sd              =   1.6732278050827E+00
(PID.TID 0000.0001) %MON dynstat_uvel_del2            =   3.8483533489647E-04
(PID.TID 0000.0001) %MON dynstat_vvel_max             =   5.1498724813740E+00
(PID.TID 0000.0001) %MON dynstat_vvel_min             =  -5.1493635130687E+00
(PID.TID 0000.0001) %MON dynstat_vvel_mean            =   2.4778280573881E-02
(PID.TID 0000.0001) %MON dynstat_vvel_sd              =   1.6732345195611E+00
(PID.TID 0000.0001) %MON dynstat_vvel_del2            =   3.8491428533418E-04
(PID.TID 0000.0001) %MON dynstat_wvel_max             =   5.8490493620286E-02
(PID.TID 0000.0001) %MON dynstat_wvel_min             =  -5.7509969575223E-02
(PID.TID 0000.0001) %MON dynstat_wvel_mean            =  -1.8554997890022E-17
(PID.TID 0000.0001) %MON dynstat_wvel_sd              =   1.6585906164660E-02
(PID.TID 0000.0001) %MON dynstat_wvel_del2            =   2.5989980743703E-05
(PID.TID 0000.0001) %MON dynstat_theta_max            =   1.1538300854937E+03
(PID.TID 0000.0001) %MON dynstat_theta_min            =   2.5545683379389E+02
(PID.TID 0000.0001) %MON dynstat_theta_mean           =   3.2787991947205E+02
(PID.TID 0000.0001) %MON dynstat_theta_sd             =   9.0371865948509E+01
(PID.TID 0000.0001) %MON dynstat_theta_del2           =   5.6247330004941E-04
(PID.TID 0000.0001) %MON dynstat_salt_max             =   2.0316146024171E-02
(PID.TID 0000.0001) %MON dynstat_salt_min             =   0.0000000000000E+00
(PID.TID 0000.0001) %MON dynstat_salt_mean            =   1.8110086495408E-03
(PID.TID 0000.0001) %MON dynstat_salt_sd              =   3.8089124407837E-03
(PID.TID 0000.0001) %MON dynstat_salt_del2            =   2.5251752836580E-07
(PID.TID 0000.0001) %MON advcfl_uvel_max              =   1.4393215743128E-02
(PID.TID 0000.0001) %MON advcfl_vvel_max              =   1.4392747683764E-02
(PID.TID 0000.0001) %MON advcfl_wvel_max              =   3.5479664516157E-03
(PID.TID 0000.0001) %MON advcfl_W_hf_max              =   3.9064097767743E-03
(PID.TID 0000.0001) %MON am_eta_mean                  =  -3.7271437163582E+09
(PID.TID 0000.0001) %MON am_uZo_mean                  =   3.7276390592539E+09
(PID.TID 0000.0001) %MON am_tot_mean                  =   4.9534289567709E+05
(PID.TID 0000.0001) %MON pe_b_mean                    =   2.0705925482512E-02
(PID.TID 0000.0001) %MON ke_max                       =   1.3445495575823E+01
(PID.TID 0000.0001) %MON ke_mean                      =   2.8003148762707E+00
(PID.TID 0000.0001) %MON ke_vol                       =   5.0986421042785E+19
(PID.TID 0000.0001) %MON vort_r_min                   =  -3.6852275706585E-07
(PID.TID 0000.0001) %MON vort_r_max                   =   3.6874840347846E-07
(PID.TID 0000.0001) %MON vort_a_mean                  =   6.1283879344629E-20
(PID.TID 0000.0001) %MON vort_a_sd                    =   8.4222468447497E-05
(PID.TID 0000.0001) %MON vort_p_mean                  =   6.1283877827006E-20
(PID.TID 0000.0001) %MON vort_p_sd                    =   8.4206862138775E-05
(PID.TID 0000.0001) %MON surfExpan_theta_mean         =  -1.1106625493109E+00
(PID.TID 0000.0001) %MON surfExpan_salt_mean          =  -1.0266186334923E-04
(PID.TID 0000.0001) %MON surfExpan_Heat_mean          =  -9.7426919125532E+01
(PID.TID 0000.0001) %MON En_Budget_T2PE_mean          =   1.1369912196932E+01
(PID.TID 0000.0001) // =======================================================
(PID.TID 0000.0001) // End MONITOR dynamic field statistics
(PID.TID 0000.0001) // =======================================================
 cg2d: Sum(rhs),rhsMax =  -2.32830643653870E-10  1.49005450940383E+03
(PID.TID 0000.0001)      cg2d_init_res =   1.82762209444268E+04
(PID.TID 0000.0001)      cg2d_iters(min,last) =      -1      12
(PID.TID 0000.0001)      cg2d_last_res =   1.30798905282708E-10
(PID.TID 0000.0001) // =======================================================
(PID.TID 0000.0001) // Begin MONITOR dynamic field statistics
(PID.TID 0000.0001) // =======================================================
(PID.TID 0000.0001) %MON time_tsnumber                =                     5
(PID.TID 0000.0001) %MON time_secondsf                =   1.8000000000000E+03
(PID.TID 0000.0001) %MON dynstat_eta_max              =   1.8570391684096E+02
(PID.TID 0000.0001) %MON dynstat_eta_min              =  -1.3065725414287E+02
(PID.TID 0000.0001) %MON dynstat_eta_mean             =  -3.4811883184425E-14
(PID.TID 0000.0001) %MON dynstat_eta_sd               =   1.0442526991861E+02
(PID.TID 0000.0001) %MON dynstat_eta_del2             =   1.8483276093114E-01
(PID.TID 0000.0001) %MON dynstat_uvel_max             =   6.4081139673264E+00
(PID.TID 0000.0001) %MON dynstat_uvel_min             =  -6.4100793953707E+00
(PID.TID 0000.0001) %MON dynstat_uvel_mean            =   3.9150918847715E-02
(PID.TID 0000.0001) %MON dynstat_uvel_sd              =   2.0839628256541E+00
(PID.TID 0000.0001) %MON dynstat_uvel_del2            =   4.6733869953497E-04
(PID.TID 0000.0001) %MON dynstat_vvel_max             =   6.4100686537164E+00
(PID.TID 0000.0001) %MON dynstat_vvel_min             =  -6.4092543402626E+00
(PID.TID 0000.0001) %MON dynstat_vvel_mean            =   3.9259191538648E-02
(PID.TID 0000.0001) %MON dynstat_vvel_sd              =   2.0839745799776E+00
(PID.TID 0000.0001) %MON dynstat_vvel_del2            =   4.6743913717171E-04
(PID.TID 0000.0001) %MON dynstat_wvel_max             =   6.8761348176847E-02
(PID.TID 0000.0001) %MON dynstat_wvel_min             =  -7.2457772054222E-02
(PID.TID 0000.0001) %MON dynstat_wvel_mean            =  -3.7738978759368E-18
(PID.TID 0000.0001) %MON dynstat_wvel_sd              =   2.0556831297422E-02
(PID.TID 0000.0001) %MON dynstat_wvel_del2            =   2.9546671326007E-05
(PID.TID 0000.0001) %MON dynstat_theta_max            =   1.1538868705208E+03
(PID.TID 0000.0001) %MON dynstat_theta_min            =   2.5557765114151E+02
(PID.TID 0000.0001) %MON dynstat_theta_mean           =   3.2788175862603E+02
(PID.TID 0000.0001) %MON dynstat_theta_sd             =   9.0371349951494E+01
(PID.TID 0000.0001) %MON dynstat_theta_del2           =   5.6546851253263E-04
(PID.TID 0000.0001) %MON dynstat_salt_max             =   2.0316392647185E-02
(PID.TID 0000.0001) %MON dynstat_salt_min             =   0.0000000000000E+00
(PID.TID 0000.0001) %MON dynstat_salt_mean            =   1.8144796105251E-03
(PID.TID 0000.0001) %MON dynstat_salt_sd              =   3.8115145576351E-03
(PID.TID 0000.0001) %MON dynstat_salt_del2            =   2.9026108610714E-07
(PID.TID 0000.0001) %MON advcfl_uvel_max              =   1.8058751606717E-02
(PID.TID 0000.0001) %MON advcfl_vvel_max              =   1.8057812677112E-02
(PID.TID 0000.0001) %MON advcfl_wvel_max              =   4.1168891763439E-03
(PID.TID 0000.0001) %MON advcfl_W_hf_max              =   4.5313883866550E-03
(PID.TID 0000.0001) %MON am_eta_mean                  =  -6.1948125104723E+09
(PID.TID 0000.0001) %MON am_uZo_mean                  =   6.1949228026239E+09
(PID.TID 0000.0001) %MON am_tot_mean                  =   1.1029215162754E+05
(PID.TID 0000.0001) %MON pe_b_mean                    =   4.6184138640830E-02
(PID.TID 0000.0001) %MON ke_max                       =   2.0823533823013E+01
(PID.TID 0000.0001) %MON ke_mean                      =   4.3444625936340E+00
(PID.TID 0000.0001) %MON ke_vol                       =   5.0986421042785E+19
(PID.TID 0000.0001) %MON vort_r_min                   =  -5.4877077154326E-07
(PID.TID 0000.0001) %MON vort_r_max                   =   5.4919676389783E-07
(PID.TID 0000.0001) %MON vort_a_mean                  =  -1.9610841390281E-19
(PID.TID 0000.0001) %MON vort_a_sd                    =   8.4234343097522E-05
(PID.TID 0000.0001) %MON vort_p_mean                  =  -1.9610840552785E-19
(PID.TID 0000.0001) %MON vort_p_sd                    =   8.4208394687132E-05
(PID.TID 0000.0001) %MON surfExpan_theta_mean         =  -1.3783490484760E+00
(PID.TID 0000.0001) %MON surfExpan_salt_mean          =  -1.2749645172810E-04
(PID.TID 0000.0001) %MON surfExpan_Heat_mean          =  -1.2093120456807E+02
(PID.TID 0000.0001) %MON En_Budget_T2PE_mean          =   1.4153313821082E+01
(PID.TID 0000.0001) // =======================================================
(PID.TID 0000.0001) // End MONITOR dynamic field statistics
(PID.TID 0000.0001) // =======================================================
 cg2d: Sum(rhs),rhsMax =   2.32830643653870E-10  2.07119347495162E+03
(PID.TID 0000.0001)      cg2d_init_res =   2.17814127833260E+04
(PID.TID 0000.0001)      cg2d_iters(min,last) =      -1      13
(PID.TID 0000.0001)      cg2d_last_res =   1.54225946531389E-11
(PID.TID 0000.0001) // =======================================================
(PID.TID 0000.0001) // Begin MONITOR dynamic field statistics
(PID.TID 0000.0001) // =======================================================
(PID.TID 0000.0001) %MON time_tsnumber                =                     6
(PID.TID 0000.0001) %MON time_secondsf                =   2.1600000000000E+03
(PID.TID 0000.0001) %MON dynstat_eta_max              =   2.5813574045723E+02
(PID.TID 0000.0001) %MON dynstat_eta_min              =  -1.8224530766192E+02
(PID.TID 0000.0001) %MON dynstat_eta_mean             =  -6.4268092032785E-14
(PID.TID 0000.0001) %MON dynstat_eta_sd               =   1.4554269413306E+02
(PID.TID 0000.0001) %MON dynstat_eta_del2             =   2.0905243302470E-01
(PID.TID 0000.0001) %MON dynstat_uvel_max             =   7.6547991492216E+00
(PID.TID 0000.0001) %MON dynstat_uvel_min             =  -7.6574190413519E+00
(PID.TID 0000.0001) %MON dynstat_uvel_mean            =   5.6604279555570E-02
(PID.TID 0000.0001) %MON dynstat_uvel_sd              =   2.4903777734566E+00
(PID.TID 0000.0001) %MON dynstat_uvel_del2            =   5.4787735945606E-04
(PID.TID 0000.0001) %MON dynstat_vvel_max             =   7.6574396985264E+00
(PID.TID 0000.0001) %MON dynstat_vvel_min             =  -7.6562735368881E+00
(PID.TID 0000.0001) %MON dynstat_vvel_mean            =   5.6766614471457E-02
(PID.TID 0000.0001) %MON dynstat_vvel_sd              =   2.4903958793374E+00
(PID.TID 0000.0001) %MON dynstat_vvel_del2            =   5.4799457746868E-04
(PID.TID 0000.0001) %MON dynstat_wvel_max             =   7.8678590480355E-02
(PID.TID 0000.0001) %MON dynstat_wvel_min             =  -8.8091947258616E-02
(PID.TID 0000.0001) %MON dynstat_wvel_mean            =  -8.9944566043160E-17
(PID.TID 0000.0001) %MON dynstat_wvel_sd              =   2.4473913039388E-02
(PID.TID 0000.0001) %MON dynstat_wvel_del2            =   3.2820285745143E-05
(PID.TID 0000.0001) %MON dynstat_theta_max            =   1.1539510276067E+03
(PID.TID 0000.0001) %MON dynstat_theta_min            =   2.5569716528865E+02
(PID.TID 0000.0001) %MON dynstat_theta_mean           =   3.2788357986743E+02
(PID.TID 0000.0001) %MON dynstat_theta_sd             =   9.0370873648554E+01
(PID.TID 0000.0001) %MON dynstat_theta_del2           =   5.6904310646762E-04
(PID.TID 0000.0001) %MON dynstat_salt_max             =   2.0316639648579E-02
(PID.TID 0000.0001) %MON dynstat_salt_min             =   0.0000000000000E+00
(PID.TID 0000.0001) %MON dynstat_salt_mean            =   1.8179051311657E-03
(PID.TID 0000.0001) %MON dynstat_salt_sd              =   3.8141175631471E-03
(PID.TID 0000.0001) %MON dynstat_salt_del2            =   3.3176868585907E-07
(PID.TID 0000.0001) %MON advcfl_uvel_max              =   2.1729428720106E-02
(PID.TID 0000.0001) %MON advcfl_vvel_max              =   2.1727824032467E-02
(PID.TID 0000.0001) %MON advcfl_wvel_max              =   4.5939569564704E-03
(PID.TID 0000.0001) %MON advcfl_W_hf_max              =   5.0546642008666E-03
(PID.TID 0000.0001) %MON am_eta_mean                  =  -9.2620100100847E+09
(PID.TID 0000.0001) %MON am_uZo_mean                  =   9.2611746570849E+09
(PID.TID 0000.0001) %MON am_tot_mean                  =  -8.3535299975204E+05
(PID.TID 0000.0001) %MON pe_b_mean                    =   8.9714461551069E-02
(PID.TID 0000.0001) %MON ke_max                       =   2.9764598841933E+01
(PID.TID 0000.0001) %MON ke_mean                      =   6.2052397916651E+00
(PID.TID 0000.0001) %MON ke_vol                       =   5.0986421042785E+19
(PID.TID 0000.0001) %MON vort_r_min                   =  -7.6129424349526E-07
(PID.TID 0000.0001) %MON vort_r_max                   =   7.6194771134632E-07
(PID.TID 0000.0001) %MON vort_a_mean                  =  -7.1089300039769E-20
(PID.TID 0000.0001) %MON vort_a_sd                    =   8.4248723321649E-05
(PID.TID 0000.0001) %MON vort_p_mean                  =  -6.8637940403415E-20
(PID.TID 0000.0001) %MON vort_p_sd                    =   8.4209910753025E-05
(PID.TID 0000.0001) %MON surfExpan_theta_mean         =  -1.6403571285123E+00
(PID.TID 0000.0001) %MON surfExpan_salt_mean          =  -1.5187389752637E-04
(PID.TID 0000.0001) %MON surfExpan_Heat_mean          =  -1.4395259085807E+02
(PID.TID 0000.0001) %MON En_Budget_T2PE_mean          =   1.6903758245585E+01
(PID.TID 0000.0001) // =======================================================
(PID.TID 0000.0001) // End MONITOR dynamic field statistics
(PID.TID 0000.0001) // =======================================================
 cg2d: Sum(rhs),rhsMax =   4.19095158576965E-09  2.74015771485004E+03
(PID.TID 0000.0001)      cg2d_init_res =   2.52189677005233E+04
(PID.TID 0000.0001)      cg2d_iters(min,last) =      -1      13
(PID.TID 0000.0001)      cg2d_last_res =   2.48245792700805E-11
(PID.TID 0000.0001) // =======================================================
(PID.TID 0000.0001) // Begin MONITOR dynamic field statistics
(PID.TID 0000.0001) // =======================================================
(PID.TID 0000.0001) %MON time_tsnumber                =                     7
(PID.TID 0000.0001) %MON time_secondsf                =   2.5200000000000E+03
(PID.TID 0000.0001) %MON dynstat_eta_max              =   3.4151744101746E+02
(PID.TID 0000.0001) %MON dynstat_eta_min              =  -2.4198383206827E+02
(PID.TID 0000.0001) %MON dynstat_eta_mean             =  -6.4268092032785E-14
(PID.TID 0000.0001) %MON dynstat_eta_sd               =   1.9314906553732E+02
(PID.TID 0000.0001) %MON dynstat_eta_del2             =   2.3263175282303E-01
(PID.TID 0000.0001) %MON dynstat_uvel_max             =   8.8901918265049E+00
(PID.TID 0000.0001) %MON dynstat_uvel_min             =  -8.8941613793451E+00
(PID.TID 0000.0001) %MON dynstat_uvel_mean            =   7.7008810531768E-02
(PID.TID 0000.0001) %MON dynstat_uvel_sd              =   2.8918761413676E+00
(PID.TID 0000.0001) %MON dynstat_uvel_del2            =   6.2669101697588E-04
(PID.TID 0000.0001) %MON dynstat_vvel_max             =   8.8941492540365E+00
(PID.TID 0000.0001) %MON dynstat_vvel_min             =  -8.8922823398610E+00
(PID.TID 0000.0001) %MON dynstat_vvel_mean            =   7.7236044246212E-02
(PID.TID 0000.0001) %MON dynstat_vvel_sd              =   2.8919023924012E+00
(PID.TID 0000.0001) %MON dynstat_vvel_del2            =   6.2682800989866E-04
(PID.TID 0000.0001) %MON dynstat_wvel_max             =   8.8141467457189E-02
(PID.TID 0000.0001) %MON dynstat_wvel_min             =  -1.0409303717201E-01
(PID.TID 0000.0001) %MON dynstat_wvel_mean            =  -3.2707114924785E-17
(PID.TID 0000.0001) %MON dynstat_wvel_sd              =   2.8342640571775E-02
(PID.TID 0000.0001) %MON dynstat_wvel_del2            =   3.6069857529743E-05
(PID.TID 0000.0001) %MON dynstat_theta_max            =   1.1540462137758E+03
(PID.TID 0000.0001) %MON dynstat_theta_min            =   2.5581553628318E+02
(PID.TID 0000.0001) %MON dynstat_theta_mean           =   3.2788540239686E+02
(PID.TID 0000.0001) %MON dynstat_theta_sd             =   9.0370430511021E+01
(PID.TID 0000.0001) %MON dynstat_theta_del2           =   5.7387773851887E-04
(PID.TID 0000.0001) %MON dynstat_salt_max             =   2.0316887082153E-02
(PID.TID 0000.0001) %MON dynstat_salt_min             =   0.0000000000000E+00
(PID.TID 0000.0001) %MON dynstat_salt_mean            =   1.8212771916496E-03
(PID.TID 0000.0001) %MON dynstat_salt_sd              =   3.8167454803221E-03
(PID.TID 0000.0001) %MON dynstat_salt_del2            =   3.7478660686308E-07
(PID.TID 0000.0001) %MON advcfl_uvel_max              =   2.5386470235575E-02
(PID.TID 0000.0001) %MON advcfl_vvel_max              =   2.5384033272664E-02
(PID.TID 0000.0001) %MON advcfl_wvel_max              =   5.0030743988969E-03
(PID.TID 0000.0001) %MON advcfl_W_hf_max              =   5.5025540318572E-03
(PID.TID 0000.0001) %MON am_eta_mean                  =  -1.2918406763356E+10
(PID.TID 0000.0001) %MON am_uZo_mean                  =   1.2915907076836E+10
(PID.TID 0000.0001) %MON am_tot_mean                  =  -2.4996865201664E+06
(PID.TID 0000.0001) %MON pe_b_mean                    =   1.5800355479420E-01
(PID.TID 0000.0001) %MON ke_max                       =   4.0223987256691E+01
(PID.TID 0000.0001) %MON ke_mean                      =   8.3689714138095E+00
(PID.TID 0000.0001) %MON ke_vol                       =   5.0986421042785E+19
(PID.TID 0000.0001) %MON vort_r_min                   =  -1.0049147928769E-06
(PID.TID 0000.0001) %MON vort_r_max                   =   1.0057992788815E-06
(PID.TID 0000.0001) %MON vort_a_mean                  =  -3.6770327606777E-20
(PID.TID 0000.0001) %MON vort_a_sd                    =   8.4265570128420E-05
(PID.TID 0000.0001) %MON vort_p_mean                  =  -3.6770324261426E-20
(PID.TID 0000.0001) %MON vort_p_sd                    =   8.4211409161055E-05
(PID.TID 0000.0001) %MON surfExpan_theta_mean         =  -1.8958922144060E+00
(PID.TID 0000.0001) %MON surfExpan_salt_mean          =  -1.7573689733422E-04
(PID.TID 0000.0001) %MON surfExpan_Heat_mean          =  -1.6642407503316E+02
(PID.TID 0000.0001) %MON En_Budget_T2PE_mean          =   1.9616928579859E+01
(PID.TID 0000.0001) // =======================================================
(PID.TID 0000.0001) // End MONITOR dynamic field statistics
(PID.TID 0000.0001) // =======================================================
 cg2d: Sum(rhs),rhsMax =   4.88944351673126E-09  3.49351844113994E+03
(PID.TID 0000.0001)      cg2d_init_res =   2.85784485615993E+04
(PID.TID 0000.0001)      cg2d_iters(min,last) =      -1      13
(PID.TID 0000.0001)      cg2d_last_res =   3.54576012344368E-11
(PID.TID 0000.0001) // =======================================================
(PID.TID 0000.0001) // Begin MONITOR dynamic field statistics
(PID.TID 0000.0001) // =======================================================
(PID.TID 0000.0001) %MON time_tsnumber                =                     8
(PID.TID 0000.0001) %MON time_secondsf                =   2.8800000000000E+03
(PID.TID 0000.0001) %MON dynstat_eta_max              =   4.3542305696049E+02
(PID.TID 0000.0001) %MON dynstat_eta_min              =  -3.0968776295830E+02
(PID.TID 0000.0001) %MON dynstat_eta_mean             =   7.4979440704916E-14
(PID.TID 0000.0001) %MON dynstat_eta_sd               =   2.4710058711300E+02
(PID.TID 0000.0001) %MON dynstat_eta_del2             =   2.5613785612755E-01
(PID.TID 0000.0001) %MON dynstat_uvel_max             =   1.0112027556649E+01
(PID.TID 0000.0001) %MON dynstat_uvel_min             =  -1.0116792706872E+01
(PID.TID 0000.0001) %MON dynstat_uvel_mean            =   1.0029092258341E-01
(PID.TID 0000.0001) %MON dynstat_uvel_sd              =   3.2878788744695E+00
(PID.TID 0000.0001) %MON dynstat_uvel_del2            =   7.0365695217135E-04
(PID.TID 0000.0001) %MON dynstat_vvel_max             =   1.0116839478155E+01
(PID.TID 0000.0001) %MON dynstat_vvel_min             =  -1.0114421114987E+01
(PID.TID 0000.0001) %MON dynstat_vvel_mean            =   1.0059390576688E-01
(PID.TID 0000.0001) %MON dynstat_vvel_sd              =   3.2879144883507E+00
(PID.TID 0000.0001) %MON dynstat_vvel_del2            =   7.0382041387770E-04
(PID.TID 0000.0001) %MON dynstat_wvel_max             =   9.7508076956639E-02
(PID.TID 0000.0001) %MON dynstat_wvel_min             =  -1.2031041638253E-01
(PID.TID 0000.0001) %MON dynstat_wvel_mean            =   5.9124400056343E-17
(PID.TID 0000.0001) %MON dynstat_wvel_sd              =   3.2164575826562E-02
(PID.TID 0000.0001) %MON dynstat_wvel_del2            =   3.9427065521959E-05
(PID.TID 0000.0001) %MON dynstat_theta_max            =   1.1541512032368E+03
(PID.TID 0000.0001) %MON dynstat_theta_min            =   2.5593280917288E+02
(PID.TID 0000.0001) %MON dynstat_theta_mean           =   3.2788716233320E+02
(PID.TID 0000.0001) %MON dynstat_theta_sd             =   9.0370069745068E+01
(PID.TID 0000.0001) %MON dynstat_theta_del2           =   5.8007280932342E-04
(PID.TID 0000.0001) %MON dynstat_salt_max             =   2.0317134999571E-02
(PID.TID 0000.0001) %MON dynstat_salt_min             =   0.0000000000000E+00
(PID.TID 0000.0001) %MON dynstat_salt_mean            =   1.8246160337734E-03
(PID.TID 0000.0001) %MON dynstat_salt_sd              =   3.8193901908287E-03
(PID.TID 0000.0001) %MON dynstat_salt_del2            =   4.1862422800869E-07
(PID.TID 0000.0001) %MON advcfl_uvel_max              =   2.9043982486058E-02
(PID.TID 0000.0001) %MON advcfl_vvel_max              =   2.9040379793794E-02
(PID.TID 0000.0001) %MON advcfl_wvel_max              =   5.3629510307272E-03
(PID.TID 0000.0001) %MON advcfl_W_hf_max              =   5.8956286688036E-03
(PID.TID 0000.0001) %MON am_eta_mean                  =  -1.7152075830196E+10
(PID.TID 0000.0001) %MON am_uZo_mean                  =   1.7147049502826E+10
(PID.TID 0000.0001) %MON am_tot_mean                  =  -5.0263273703880E+06
(PID.TID 0000.0001) %MON pe_b_mean                    =   2.5860039849626E-01
(PID.TID 0000.0001) %MON ke_max                       =   5.2127400930581E+01
(PID.TID 0000.0001) %MON ke_mean                      =   1.0820353289462E+01
(PID.TID 0000.0001) %MON ke_vol                       =   5.0986421042785E+19
(PID.TID 0000.0001) %MON vort_r_min                   =  -1.2781333984158E-06
(PID.TID 0000.0001) %MON vort_r_max                   =   1.2792400988666E-06
(PID.TID 0000.0001) %MON vort_a_mean                  =  -6.3735234518414E-20
(PID.TID 0000.0001) %MON vort_a_sd                    =   8.4284839345983E-05
(PID.TID 0000.0001) %MON vort_p_mean                  =  -6.3735226865892E-20
(PID.TID 0000.0001) %MON vort_p_sd                    =   8.4212889475197E-05
(PID.TID 0000.0001) %MON surfExpan_theta_mean         =  -2.1442013991423E+00
(PID.TID 0000.0001) %MON surfExpan_salt_mean          =  -1.9902369025936E-04
(PID.TID 0000.0001) %MON surfExpan_Heat_mean          =  -1.8828208862667E+02
(PID.TID 0000.0001) %MON En_Budget_T2PE_mean          =   2.2288831273365E+01
(PID.TID 0000.0001) // =======================================================
(PID.TID 0000.0001) // End MONITOR dynamic field statistics
(PID.TID 0000.0001) // =======================================================
(PID.TID 0000.0001)   Exporting atmospheric fluxes at iter.         8
(PID.TID 0000.0001)   Importing oceanic fields at iteration         8
 cg2d: Sum(rhs),rhsMax =   3.72529029846191E-09  4.32756697240355E+03
(PID.TID 0000.0001)      cg2d_init_res =   3.18498843058056E+04
(PID.TID 0000.0001)      cg2d_iters(min,last) =      -1      13
(PID.TID 0000.0001)      cg2d_last_res =   4.62866733198541E-11
(PID.TID 0000.0001) // =======================================================
(PID.TID 0000.0001) // Begin MONITOR dynamic field statistics
(PID.TID 0000.0001) // =======================================================
(PID.TID 0000.0001) %MON time_tsnumber                =                     9
(PID.TID 0000.0001) %MON time_secondsf                =   3.2400000000000E+03
(PID.TID 0000.0001) %MON dynstat_eta_max              =   5.3939212633087E+02
(PID.TID 0000.0001) %MON dynstat_eta_min              =  -3.8514841459169E+02
(PID.TID 0000.0001) %MON dynstat_eta_mean             =  -4.2845394688523E-14
(PID.TID 0000.0001) %MON dynstat_eta_sd               =   3.0723362939177E+02
(PID.TID 0000.0001) %MON dynstat_eta_del2             =   2.7970790902105E-01
(PID.TID 0000.0001) %MON dynstat_uvel_max             =   1.1316661955654E+01
(PID.TID 0000.0001) %MON dynstat_uvel_min             =  -1.1322266326485E+01
(PID.TID 0000.0001) %MON dynstat_uvel_mean            =   1.2636822255068E-01
(PID.TID 0000.0001) %MON dynstat_uvel_sd              =   3.6778286149016E+00
(PID.TID 0000.0001) %MON dynstat_uvel_del2            =   7.7882571911821E-04
(PID.TID 0000.0001) %MON dynstat_vvel_max             =   1.1322391783321E+01
(PID.TID 0000.0001) %MON dynstat_vvel_min             =  -1.1319357998963E+01
(PID.TID 0000.0001) %MON dynstat_vvel_mean            =   1.2675780251625E-01
(PID.TID 0000.0001) %MON dynstat_vvel_sd              =   3.6778753115548E+00
(PID.TID 0000.0001) %MON dynstat_vvel_del2            =   7.7902621020715E-04
(PID.TID 0000.0001) %MON dynstat_wvel_max             =   1.0692768598894E-01
(PID.TID 0000.0001) %MON dynstat_wvel_min             =  -1.3649093908407E-01
(PID.TID 0000.0001) %MON dynstat_wvel_mean            =  -1.0063727669165E-17
(PID.TID 0000.0001) %MON dynstat_wvel_sd              =   3.5939178743688E-02
(PID.TID 0000.0001) %MON dynstat_wvel_del2            =   4.2874554280326E-05
(PID.TID 0000.0001) %MON dynstat_theta_max            =   1.1542590992003E+03
(PID.TID 0000.0001) %MON dynstat_theta_min            =   2.5604896226328E+02
(PID.TID 0000.0001) %MON dynstat_theta_mean           =   3.2788882514376E+02
(PID.TID 0000.0001) %MON dynstat_theta_sd             =   9.0369819170780E+01
(PID.TID 0000.0001) %MON dynstat_theta_del2           =   5.8638295465171E-04
(PID.TID 0000.0001) %MON dynstat_salt_max             =   2.0317383429655E-02
(PID.TID 0000.0001) %MON dynstat_salt_min             =   0.0000000000000E+00
(PID.TID 0000.0001) %MON dynstat_salt_mean            =   1.8279316750953E-03
(PID.TID 0000.0001) %MON dynstat_salt_sd              =   3.8220312159038E-03
(PID.TID 0000.0001) %MON dynstat_salt_del2            =   4.5985137033449E-07
(PID.TID 0000.0001) %MON advcfl_uvel_max              =   3.2698080282892E-02
(PID.TID 0000.0001) %MON advcfl_vvel_max              =   3.2693043240403E-02
(PID.TID 0000.0001) %MON advcfl_wvel_max              =   5.6863988166372E-03
(PID.TID 0000.0001) %MON advcfl_W_hf_max              =   6.2479543335890E-03
(PID.TID 0000.0001) %MON am_eta_mean                  =  -2.1949523913407E+10
(PID.TID 0000.0001) %MON am_uZo_mean                  =   2.1940981372705E+10
(PID.TID 0000.0001) %MON am_tot_mean                  =  -8.5425407017021E+06
(PID.TID 0000.0001) %MON pe_b_mean                    =   3.9977822714567E-01
(PID.TID 0000.0001) %MON ke_max                       =   6.5411696134568E+01
(PID.TID 0000.0001) %MON ke_mean                      =   1.3542613298056E+01
(PID.TID 0000.0001) %MON ke_vol                       =   5.0986421042785E+19
(PID.TID 0000.0001) %MON vort_r_min                   =  -1.5793182422332E-06
(PID.TID 0000.0001) %MON vort_r_max                   =   1.5806333803381E-06
(PID.TID 0000.0001) %MON vort_a_mean                  =  -1.4708131042711E-19
(PID.TID 0000.0001) %MON vort_a_sd                    =   8.4306481527501E-05
(PID.TID 0000.0001) %MON vort_p_mean                  =  -1.4708128806506E-19
(PID.TID 0000.0001) %MON vort_p_sd                    =   8.4214351863551E-05
(PID.TID 0000.0001) %MON surfExpan_theta_mean         =  -2.3845593776702E+00
(PID.TID 0000.0001) %MON surfExpan_salt_mean          =  -2.2167483162285E-04
(PID.TID 0000.0001) %MON surfExpan_Heat_mean          =  -2.0946520933611E+02
(PID.TID 0000.0001) %MON En_Budget_T2PE_mean          =   2.4915591299139E+01
(PID.TID 0000.0001) // =======================================================
(PID.TID 0000.0001) // End MONITOR dynamic field statistics
(PID.TID 0000.0001) // =======================================================
 cg2d: Sum(rhs),rhsMax =   9.31322574615479E-10  5.23833920582995E+03
(PID.TID 0000.0001)      cg2d_init_res =   3.50228863741105E+04
(PID.TID 0000.0001)      cg2d_iters(min,last) =      -1      13
(PID.TID 0000.0001)      cg2d_last_res =   5.74258177465459E-11
(PID.TID 0000.0001) // =======================================================
(PID.TID 0000.0001) // Begin MONITOR dynamic field statistics
(PID.TID 0000.0001) // =======================================================
(PID.TID 0000.0001) %MON time_tsnumber                =                    10
(PID.TID 0000.0001) %MON time_secondsf                =   3.6000000000000E+03
(PID.TID 0000.0001) %MON dynstat_eta_max              =   6.5293303828319E+02
(PID.TID 0000.0001) %MON dynstat_eta_min              =  -4.6813622170721E+02
(PID.TID 0000.0001) %MON dynstat_eta_mean             =   2.1422697344262E-14
(PID.TID 0000.0001) %MON dynstat_eta_sd               =   3.7336495994083E+02
(PID.TID 0000.0001) %MON dynstat_eta_del2             =   3.0386058153858E-01
(PID.TID 0000.0001) %MON dynstat_uvel_max             =   1.2502687495094E+01
(PID.TID 0000.0001) %MON dynstat_uvel_min             =  -1.2509776821038E+01
(PID.TID 0000.0001) %MON dynstat_uvel_mean            =   1.5514998165532E-01
(PID.TID 0000.0001) %MON dynstat_uvel_sd              =   4.0611916579792E+00
(PID.TID 0000.0001) %MON dynstat_uvel_del2            =   8.5231771139539E-04
(PID.TID 0000.0001) %MON dynstat_vvel_max             =   1.2509382689246E+01
(PID.TID 0000.0001) %MON dynstat_vvel_min             =  -1.2505890758394E+01
(PID.TID 0000.0001) %MON dynstat_vvel_mean            =   1.5563696641548E-01
(PID.TID 0000.0001) %MON dynstat_vvel_sd              =   4.0612516283237E+00
(PID.TID 0000.0001) %MON dynstat_vvel_del2            =   8.5256052513965E-04
(PID.TID 0000.0001) %MON dynstat_wvel_max             =   1.1687421105753E-01
(PID.TID 0000.0001) %MON dynstat_wvel_min             =  -1.5243610953966E-01
(PID.TID 0000.0001) %MON dynstat_wvel_mean            =  -1.8617896187955E-16
(PID.TID 0000.0001) %MON dynstat_wvel_sd              =   3.9665421423829E-02
(PID.TID 0000.0001) %MON dynstat_wvel_del2            =   4.6376341166195E-05
(PID.TID 0000.0001) %MON dynstat_theta_max            =   1.1543780845837E+03
(PID.TID 0000.0001) %MON dynstat_theta_min            =   2.5616395028610E+02
(PID.TID 0000.0001) %MON dynstat_theta_mean           =   3.2789042048052E+02
(PID.TID 0000.0001) %MON dynstat_theta_sd             =   9.0369662185116E+01
(PID.TID 0000.0001) %MON dynstat_theta_del2           =   5.9116995491516E-04
(PID.TID 0000.0001) %MON dynstat_salt_max             =   2.0317632441244E-02
(PID.TID 0000.0001) %MON dynstat_salt_min             =   0.0000000000000E+00
(PID.TID 0000.0001) %MON dynstat_salt_mean            =   1.8312126495338E-03
(PID.TID 0000.0001) %MON dynstat_salt_sd              =   3.8246790740494E-03
(PID.TID 0000.0001) %MON dynstat_salt_del2            =   5.0097578293519E-07
(PID.TID 0000.0001) %MON advcfl_uvel_max              =   3.6349938659075E-02
(PID.TID 0000.0001) %MON advcfl_vvel_max              =   3.6343534670052E-02
(PID.TID 0000.0001) %MON advcfl_wvel_max              =   5.9814043366743E-03
(PID.TID 0000.0001) %MON advcfl_W_hf_max              =   6.5682865821991E-03
(PID.TID 0000.0001) %MON am_eta_mean                  =  -2.7295731504055E+10
(PID.TID 0000.0001) %MON am_uZo_mean                  =   2.7282562474232E+10
(PID.TID 0000.0001) %MON am_tot_mean                  =  -1.3169029822842E+07
(PID.TID 0000.0001) %MON pe_b_mean                    =   5.9040326393815E-01
(PID.TID 0000.0001) %MON ke_max                       =   8.0008773522664E+01
(PID.TID 0000.0001) %MON ke_mean                      =   1.6517668426771E+01
(PID.TID 0000.0001) %MON ke_vol                       =   5.0986421042785E+19
(PID.TID 0000.0001) %MON vort_r_min                   =  -1.9067937597845E-06
(PID.TID 0000.0001) %MON vort_r_max                   =   1.9083015627738E-06
(PID.TID 0000.0001) %MON vort_a_mean                  =   1.0050556212519E-19
(PID.TID 0000.0001) %MON vort_a_sd                    =   8.4330441935080E-05
(PID.TID 0000.0001) %MON vort_p_mean                  =   1.0050554334223E-19
(PID.TID 0000.0001) %MON vort_p_sd                    =   8.4215797029995E-05
(PID.TID 0000.0001) %MON surfExpan_theta_mean         =  -2.6162567108407E+00
(PID.TID 0000.0001) %MON surfExpan_salt_mean          =  -2.4363821607414E-04
(PID.TID 0000.0001) %MON surfExpan_Heat_mean          =  -2.2991306904704E+02
(PID.TID 0000.0001) %MON En_Budget_T2PE_mean          =   2.7493218668908E+01
(PID.TID 0000.0001) // =======================================================
(PID.TID 0000.0001) // End MONITOR dynamic field statistics
(PID.TID 0000.0001) // =======================================================
 cg2d: Sum(rhs),rhsMax =  -4.65661287307739E-10  6.22164707851242E+03
(PID.TID 0000.0001)      cg2d_init_res =   3.80876173199136E+04
(PID.TID 0000.0001)      cg2d_iters(min,last) =      -1      13
(PID.TID 0000.0001)      cg2d_last_res =   6.89033615603057E-11
(PID.TID 0000.0001) // =======================================================
(PID.TID 0000.0001) // Begin MONITOR dynamic field statistics
(PID.TID 0000.0001) // =======================================================
(PID.TID 0000.0001) %MON time_tsnumber                =                    11
(PID.TID 0000.0001) %MON time_secondsf                =   3.9600000000000E+03
(PID.TID 0000.0001) %MON dynstat_eta_max              =   7.7552730842779E+02
(PID.TID 0000.0001) %MON dynstat_eta_min              =  -5.5840216480411E+02
(PID.TID 0000.0001) %MON dynstat_eta_mean             =  -1.4995888140983E-13
(PID.TID 0000.0001) %MON dynstat_eta_sd               =   4.4529238392450E+02
(PID.TID 0000.0001) %MON dynstat_eta_del2             =   3.2906390777619E-01
(PID.TID 0000.0001) %MON dynstat_uvel_max             =   1.3685657501636E+01
(PID.TID 0000.0001) %MON dynstat_uvel_min             =  -1.3691332574783E+01
(PID.TID 0000.0001) %MON dynstat_uvel_mean            =   1.8653754768919E-01
(PID.TID 0000.0001) %MON dynstat_uvel_sd              =   4.4374594899026E+00
(PID.TID 0000.0001) %MON dynstat_uvel_del2            =   9.2416900909656E-04
(PID.TID 0000.0001) %MON dynstat_vvel_max             =   1.3690907786911E+01
(PID.TID 0000.0001) %MON dynstat_vvel_min             =  -1.3686843520111E+01
(PID.TID 0000.0001) %MON dynstat_vvel_mean            =   1.8713269414543E-01
(PID.TID 0000.0001) %MON dynstat_vvel_sd              =   4.4375333859108E+00
(PID.TID 0000.0001) %MON dynstat_vvel_del2            =   9.2445553513000E-04
(PID.TID 0000.0001) %MON dynstat_wvel_max             =   1.2713584913098E-01
(PID.TID 0000.0001) %MON dynstat_wvel_min             =  -1.6799883783543E-01
(PID.TID 0000.0001) %MON dynstat_wvel_mean            =   5.2834570263115E-17
(PID.TID 0000.0001) %MON dynstat_wvel_sd              =   4.3341302166044E-02
(PID.TID 0000.0001) %MON dynstat_wvel_del2            =   4.9888446914485E-05
(PID.TID 0000.0001) %MON dynstat_theta_max            =   1.1545081684331E+03
(PID.TID 0000.0001) %MON dynstat_theta_min            =   2.5627772695855E+02
(PID.TID 0000.0001) %MON dynstat_theta_mean           =   3.2789190596142E+02
(PID.TID 0000.0001) %MON dynstat_theta_sd             =   9.0369630679501E+01
(PID.TID 0000.0001) %MON dynstat_theta_del2           =   5.9433631986769E-04
(PID.TID 0000.0001) %MON dynstat_salt_max             =   2.0317882080899E-02
(PID.TID 0000.0001) %MON dynstat_salt_min             =   0.0000000000000E+00
(PID.TID 0000.0001) %MON dynstat_salt_mean            =   1.8344725309728E-03
(PID.TID 0000.0001) %MON dynstat_salt_sd              =   3.8273330579439E-03
(PID.TID 0000.0001) %MON dynstat_salt_del2            =   5.4048023554878E-07
(PID.TID 0000.0001) %MON advcfl_uvel_max              =   3.9984033683254E-02
(PID.TID 0000.0001) %MON advcfl_vvel_max              =   3.9976390790568E-02
(PID.TID 0000.0001) %MON advcfl_wvel_max              =   6.5540767879303E-03
(PID.TID 0000.0001) %MON advcfl_W_hf_max              =   7.1372916821065E-03
(PID.TID 0000.0001) %MON am_eta_mean                  =  -3.3174194726794E+10
(PID.TID 0000.0001) %MON am_uZo_mean                  =   3.3155178396073E+10
(PID.TID 0000.0001) %MON am_tot_mean                  =  -1.9016330720364E+07
(PID.TID 0000.0001) %MON pe_b_mean                    =   8.3979284402877E-01
(PID.TID 0000.0001) %MON ke_max                       =   9.5845551125132E+01
(PID.TID 0000.0001) %MON ke_mean                      =   1.9726282088773E+01
(PID.TID 0000.0001) %MON ke_vol                       =   5.0986421042785E+19
(PID.TID 0000.0001) %MON vort_r_min                   =  -2.2589445254238E-06
(PID.TID 0000.0001) %MON vort_r_max                   =   2.2606038446815E-06
(PID.TID 0000.0001) %MON vort_a_mean                  =   6.6186589692199E-20
(PID.TID 0000.0001) %MON vort_a_sd                    =   8.4356660765412E-05
(PID.TID 0000.0001) %MON vort_p_mean                  =   6.6186574818156E-20
(PID.TID 0000.0001) %MON vort_p_sd                    =   8.4217226393300E-05
(PID.TID 0000.0001) %MON surfExpan_theta_mean         =  -2.8386357159784E+00
(PID.TID 0000.0001) %MON surfExpan_salt_mean          =  -2.6485727247688E-04
(PID.TID 0000.0001) %MON surfExpan_Heat_mean          =  -2.4956940517236E+02
(PID.TID 0000.0001) %MON En_Budget_T2PE_mean          =   3.0018125893337E+01
(PID.TID 0000.0001) // =======================================================
(PID.TID 0000.0001) // End MONITOR dynamic field statistics
(PID.TID 0000.0001) // =======================================================
 cg2d: Sum(rhs),rhsMax =  -4.65661287307739E-09  7.27312048395059E+03
(PID.TID 0000.0001)      cg2d_init_res =   4.10355553940345E+04
(PID.TID 0000.0001)      cg2d_iters(min,last) =      -1      13
(PID.TID 0000.0001)      cg2d_last_res =   7.98691405062234E-11
(PID.TID 0000.0001) // =======================================================
(PID.TID 0000.0001) // Begin MONITOR dynamic field statistics
(PID.TID 0000.0001) // =======================================================
(PID.TID 0000.0001) %MON time_tsnumber                =                    12
(PID.TID 0000.0001) %MON time_secondsf                =   4.3200000000000E+03
(PID.TID 0000.0001) %MON dynstat_eta_max              =   9.0663515906208E+02
(PID.TID 0000.0001) %MON dynstat_eta_min              =  -6.5567712730938E+02
(PID.TID 0000.0001) %MON dynstat_eta_mean             =   6.4268092032785E-14
(PID.TID 0000.0001) %MON dynstat_eta_sd               =   5.2279635008902E+02
(PID.TID 0000.0001) %MON dynstat_eta_del2             =   3.5539401142034E-01
(PID.TID 0000.0001) %MON dynstat_uvel_max             =   1.4859931917939E+01
(PID.TID 0000.0001) %MON dynstat_uvel_min             =  -1.4866399082671E+01
(PID.TID 0000.0001) %MON dynstat_uvel_mean            =   2.2042484404589E-01
(PID.TID 0000.0001) %MON dynstat_uvel_sd              =   4.8061513470231E+00
(PID.TID 0000.0001) %MON dynstat_uvel_del2            =   9.9428187492527E-04
(PID.TID 0000.0001) %MON dynstat_vvel_max             =   1.4866308268092E+01
(PID.TID 0000.0001) %MON dynstat_vvel_min             =  -1.4861296517930E+01
(PID.TID 0000.0001) %MON dynstat_vvel_mean            =   2.2113881039069E-01
(PID.TID 0000.0001) %MON dynstat_vvel_sd              =   4.8062395428909E+00
(PID.TID 0000.0001) %MON dynstat_vvel_del2            =   9.9461466289705E-04
(PID.TID 0000.0001) %MON dynstat_wvel_max             =   1.3766000033037E-01
(PID.TID 0000.0001) %MON dynstat_wvel_min             =  -1.8307263282076E-01
(PID.TID 0000.0001) %MON dynstat_wvel_mean            =  -4.7802706428532E-17
(PID.TID 0000.0001) %MON dynstat_wvel_sd              =   4.6965033996284E-02
(PID.TID 0000.0001) %MON dynstat_wvel_del2            =   5.3386898781385E-05
(PID.TID 0000.0001) %MON dynstat_theta_max            =   1.1546875304286E+03
(PID.TID 0000.0001) %MON dynstat_theta_min            =   2.5639025322590E+02
(PID.TID 0000.0001) %MON dynstat_theta_mean           =   3.2789325892032E+02
(PID.TID 0000.0001) %MON dynstat_theta_sd             =   9.0369742673142E+01
(PID.TID 0000.0001) %MON dynstat_theta_del2           =   5.9702602334176E-04
(PID.TID 0000.0001) %MON dynstat_salt_max             =   2.0318132394160E-02
(PID.TID 0000.0001) %MON dynstat_salt_min             =   0.0000000000000E+00
(PID.TID 0000.0001) %MON dynstat_salt_mean            =   1.8377188492790E-03
(PID.TID 0000.0001) %MON dynstat_salt_sd              =   3.8299870083558E-03
(PID.TID 0000.0001) %MON dynstat_salt_del2            =   5.7997381127981E-07
(PID.TID 0000.0001) %MON advcfl_uvel_max              =   4.3581118024879E-02
(PID.TID 0000.0001) %MON advcfl_vvel_max              =   4.3572738929542E-02
(PID.TID 0000.0001) %MON advcfl_wvel_max              =   7.1180542547928E-03
(PID.TID 0000.0001) %MON advcfl_W_hf_max              =   7.7183243863191E-03
(PID.TID 0000.0001) %MON am_eta_mean                  =  -3.9566966516785E+10
(PID.TID 0000.0001) %MON am_uZo_mean                  =   3.9540781851663E+10
(PID.TID 0000.0001) %MON am_tot_mean                  =  -2.6184665122078E+07
(PID.TID 0000.0001) %MON pe_b_mean                    =   1.1575685767969E+00
(PID.TID 0000.0001) %MON ke_max                       =   1.1284378630087E+02
(PID.TID 0000.0001) %MON ke_mean                      =   2.3148259399762E+01
(PID.TID 0000.0001) %MON ke_vol                       =   5.0986421042784E+19
(PID.TID 0000.0001) %MON vort_r_min                   =  -2.6341999000109E-06
(PID.TID 0000.0001) %MON vort_r_max                   =   2.6359592999527E-06
(PID.TID 0000.0001) %MON vort_a_mean                  =   1.5198402077468E-19
(PID.TID 0000.0001) %MON vort_a_sd                    =   8.4385073242882E-05
(PID.TID 0000.0001) %MON vort_p_mean                  =   1.5198398038648E-19
(PID.TID 0000.0001) %MON vort_p_sd                    =   8.4218642142866E-05
(PID.TID 0000.0001) %MON surfExpan_theta_mean         =  -3.0510736842130E+00
(PID.TID 0000.0001) %MON surfExpan_salt_mean          =  -2.8527835670763E-04
(PID.TID 0000.0001) %MON surfExpan_Heat_mean          =  -2.6838058731175E+02
(PID.TID 0000.0001) %MON En_Budget_T2PE_mean          =   3.2486840945814E+01
(PID.TID 0000.0001) // =======================================================
(PID.TID 0000.0001) // End MONITOR dynamic field statistics
(PID.TID 0000.0001) // =======================================================
 cg2d: Sum(rhs),rhsMax =  -9.31322574615479E-10  8.38826257226773E+03
(PID.TID 0000.0001)      cg2d_init_res =   4.38591372933139E+04
(PID.TID 0000.0001)      cg2d_iters(min,last) =      -1      13
(PID.TID 0000.0001)      cg2d_last_res =   8.98742177972370E-11
(PID.TID 0000.0001) // =======================================================
(PID.TID 0000.0001) // Begin MONITOR dynamic field statistics
(PID.TID 0000.0001) // =======================================================
(PID.TID 0000.0001) %MON time_tsnumber                =                    13
(PID.TID 0000.0001) %MON time_secondsf                =   4.6800000000000E+03
(PID.TID 0000.0001) %MON dynstat_eta_max              =   1.0457027088143E+03
(PID.TID 0000.0001) %MON dynstat_eta_min              =  -7.5967168484157E+02
(PID.TID 0000.0001) %MON dynstat_eta_mean             =   3.2134046016392E-13
(PID.TID 0000.0001) %MON dynstat_eta_sd               =   6.0564168558206E+02
(PID.TID 0000.0001) %MON dynstat_eta_del2             =   3.8255642739607E-01
(PID.TID 0000.0001) %MON dynstat_uvel_max             =   1.6012805445212E+01
(PID.TID 0000.0001) %MON dynstat_uvel_min             =  -1.6020255601645E+01
(PID.TID 0000.0001) %MON dynstat_uvel_mean            =   2.5669884931737E-01
(PID.TID 0000.0001) %MON dynstat_uvel_sd              =   5.1668153977685E+00
(PID.TID 0000.0001) %MON dynstat_uvel_del2            =   1.0624479694546E-03
(PID.TID 0000.0001) %MON dynstat_vvel_max             =   1.6020409660747E+01
(PID.TID 0000.0001) %MON dynstat_vvel_min             =  -1.6014315531291E+01
(PID.TID 0000.0001) %MON dynstat_vvel_mean            =   2.5754211965667E-01
(PID.TID 0000.0001) %MON dynstat_vvel_sd              =   5.1669182741237E+00
(PID.TID 0000.0001) %MON dynstat_vvel_del2            =   1.0628264237607E-03
(PID.TID 0000.0001) %MON dynstat_wvel_max             =   1.4828352025682E-01
(PID.TID 0000.0001) %MON dynstat_wvel_min             =  -1.9756496684573E-01
(PID.TID 0000.0001) %MON dynstat_wvel_mean            =   9.3089480939774E-17
(PID.TID 0000.0001) %MON dynstat_wvel_sd              =   5.0534952652208E-02
(PID.TID 0000.0001) %MON dynstat_wvel_del2            =   5.6857597864484E-05
(PID.TID 0000.0001) %MON dynstat_theta_max            =   1.1548734383468E+03
(PID.TID 0000.0001) %MON dynstat_theta_min            =   2.5650149894342E+02
(PID.TID 0000.0001) %MON dynstat_theta_mean           =   3.2789449599063E+02
(PID.TID 0000.0001) %MON dynstat_theta_sd             =   9.0369989504712E+01
(PID.TID 0000.0001) %MON dynstat_theta_del2           =   6.0092822012650E-04
(PID.TID 0000.0001) %MON dynstat_salt_max             =   2.0318383426044E-02
(PID.TID 0000.0001) %MON dynstat_salt_min             =   0.0000000000000E+00
(PID.TID 0000.0001) %MON dynstat_salt_mean            =   1.8409460788137E-03
(PID.TID 0000.0001) %MON dynstat_salt_sd              =   3.8326372104290E-03
(PID.TID 0000.0001) %MON dynstat_salt_del2            =   6.1719895365664E-07
(PID.TID 0000.0001) %MON advcfl_uvel_max              =   4.7169837727145E-02
(PID.TID 0000.0001) %MON advcfl_vvel_max              =   4.7159774084692E-02
(PID.TID 0000.0001) %MON advcfl_wvel_max              =   7.6578293615284E-03
(PID.TID 0000.0001) %MON advcfl_W_hf_max              =   8.2724137565170E-03
(PID.TID 0000.0001) %MON am_eta_mean                  =  -4.6454705907705E+10
(PID.TID 0000.0001) %MON am_uZo_mean                  =   4.6419943233679E+10
(PID.TID 0000.0001) %MON am_tot_mean                  =  -3.4762674026077E+07
(PID.TID 0000.0001) %MON pe_b_mean                    =   1.5535067841871E+00
(PID.TID 0000.0001) %MON ke_max                       =   1.3092017041911E+02
(PID.TID 0000.0001) %MON ke_mean                      =   2.6762624024404E+01
(PID.TID 0000.0001) %MON ke_vol                       =   5.0986421042784E+19
(PID.TID 0000.0001) %MON vort_r_min                   =  -3.0310517237325E-06
(PID.TID 0000.0001) %MON vort_r_max                   =   3.0328547886063E-06
(PID.TID 0000.0001) %MON vort_a_mean                  =   2.0591383459795E-19
(PID.TID 0000.0001) %MON vort_a_sd                    =   8.4415609203045E-05
(PID.TID 0000.0001) %MON vort_p_mean                  =   2.0591377075067E-19
(PID.TID 0000.0001) %MON vort_p_sd                    =   8.4220046750948E-05
(PID.TID 0000.0001) %MON surfExpan_theta_mean         =  -3.2529754016259E+00
(PID.TID 0000.0001) %MON surfExpan_salt_mean          =  -3.0485411337887E-04
(PID.TID 0000.0001) %MON surfExpan_Heat_mean          =  -2.8629490748341E+02
(PID.TID 0000.0001) %MON En_Budget_T2PE_mean          =   3.4895906960952E+01
(PID.TID 0000.0001) // =======================================================
(PID.TID 0000.0001) // End MONITOR dynamic field statistics
(PID.TID 0000.0001) // =======================================================
 cg2d: Sum(rhs),rhsMax =   1.21071934700012E-08  9.56252033132506E+03
(PID.TID 0000.0001)      cg2d_init_res =   4.65513496827109E+04
(PID.TID 0000.0001)      cg2d_iters(min,last) =      -1      13
(PID.TID 0000.0001)      cg2d_last_res =   9.87568310867782E-11
(PID.TID 0000.0001) // =======================================================
(PID.TID 0000.0001) // Begin MONITOR dynamic field statistics
(PID.TID 0000.0001) // =======================================================
(PID.TID 0000.0001) %MON time_tsnumber                =                    14
(PID.TID 0000.0001) %MON time_secondsf                =   5.0400000000000E+03
(PID.TID 0000.0001) %MON dynstat_eta_max              =   1.1921709138924E+03
(PID.TID 0000.0001) %MON dynstat_eta_min              =  -8.7007715849539E+02
(PID.TID 0000.0001) %MON dynstat_eta_mean             =  -1.7138157875409E-13
(PID.TID 0000.0001) %MON dynstat_eta_sd               =   6.9357904175256E+02
(PID.TID 0000.0001) %MON dynstat_eta_del2             =   4.1006360811099E-01
(PID.TID 0000.0001) %MON dynstat_uvel_max             =   1.7150629738473E+01
(PID.TID 0000.0001) %MON dynstat_uvel_min             =  -1.7159723229472E+01
(PID.TID 0000.0001) %MON dynstat_uvel_mean            =   2.9524009031463E-01
(PID.TID 0000.0001) %MON dynstat_uvel_sd              =   5.5190303550686E+00
(PID.TID 0000.0001) %MON dynstat_uvel_del2            =   1.1284431159742E-03
(PID.TID 0000.0001) %MON dynstat_vvel_max             =   1.7158709311371E+01
(PID.TID 0000.0001) %MON dynstat_vvel_min             =  -1.7151845816523E+01
(PID.TID 0000.0001) %MON dynstat_vvel_mean            =   2.9622291280220E-01
(PID.TID 0000.0001) %MON dynstat_vvel_sd              =   5.5191474430744E+00
(PID.TID 0000.0001) %MON dynstat_vvel_del2            =   1.1288725132947E-03
(PID.TID 0000.0001) %MON dynstat_wvel_max             =   1.5891150536252E-01
(PID.TID 0000.0001) %MON dynstat_wvel_min             =  -2.1138071173465E-01
(PID.TID 0000.0001) %MON dynstat_wvel_mean            =  -8.4283719229255E-17
(PID.TID 0000.0001) %MON dynstat_wvel_sd              =   5.4048788615621E-02
(PID.TID 0000.0001) %MON dynstat_wvel_del2            =   6.0287248252129E-05
(PID.TID 0000.0001) %MON dynstat_theta_max            =   1.1550735717935E+03
(PID.TID 0000.0001) %MON dynstat_theta_min            =   2.5660899129709E+02
(PID.TID 0000.0001) %MON dynstat_theta_mean           =   3.2789564120597E+02
(PID.TID 0000.0001) %MON dynstat_theta_sd             =   9.0370357375136E+01
(PID.TID 0000.0001) %MON dynstat_theta_del2           =   6.0739567363734E-04
(PID.TID 0000.0001) %MON dynstat_salt_max             =   2.0318635221673E-02
(PID.TID 0000.0001) %MON dynstat_salt_min             =   0.0000000000000E+00
(PID.TID 0000.0001) %MON dynstat_salt_mean            =   1.8441463927560E-03
(PID.TID 0000.0001) %MON dynstat_salt_sd              =   3.8353023786665E-03
(PID.TID 0000.0001) %MON dynstat_salt_del2            =   6.5418808696171E-07
(PID.TID 0000.0001) %MON advcfl_uvel_max              =   5.0722501429974E-02
(PID.TID 0000.0001) %MON advcfl_vvel_max              =   5.0710983666592E-02
(PID.TID 0000.0001) %MON advcfl_wvel_max              =   8.1699598627271E-03
(PID.TID 0000.0001) %MON advcfl_W_hf_max              =   8.7962650524919E-03
(PID.TID 0000.0001) %MON am_eta_mean                  =  -5.3816729566017E+10
(PID.TID 0000.0001) %MON am_uZo_mean                  =   5.3771902731374E+10
(PID.TID 0000.0001) %MON am_tot_mean                  =  -4.4826834642632E+07
(PID.TID 0000.0001) %MON pe_b_mean                    =   2.0373871275952E+00
(PID.TID 0000.0001) %MON ke_max                       =   1.4998668853139E+02
(PID.TID 0000.0001) %MON ke_mean                      =   3.0547799641837E+01
(PID.TID 0000.0001) %MON ke_vol                       =   5.0986421042785E+19
(PID.TID 0000.0001) %MON vort_r_min                   =  -3.4480487753802E-06
(PID.TID 0000.0001) %MON vort_r_max                   =   3.4498428033720E-06
(PID.TID 0000.0001) %MON vort_a_mean                  =  -2.1081654494552E-19
(PID.TID 0000.0001) %MON vort_a_sd                    =   8.4448193459282E-05
(PID.TID 0000.0001) %MON vort_p_mean                  =  -2.1326782381237E-19
(PID.TID 0000.0001) %MON vort_p_sd                    =   8.4221443258040E-05
(PID.TID 0000.0001) %MON surfExpan_theta_mean         =  -3.4437812403773E+00
(PID.TID 0000.0001) %MON surfExpan_salt_mean          =  -3.2354074236553E-04
(PID.TID 0000.0001) %MON surfExpan_Heat_mean          =  -3.0326332960304E+02
(PID.TID 0000.0001) %MON En_Budget_T2PE_mean          =   3.7242007934315E+01
(PID.TID 0000.0001) // =======================================================
(PID.TID 0000.0001) // End MONITOR dynamic field statistics
(PID.TID 0000.0001) // =======================================================
 cg2d: Sum(rhs),rhsMax =   7.45058059692383E-09  1.07913703340256E+04
(PID.TID 0000.0001)      cg2d_init_res =   4.91054515702164E+04
(PID.TID 0000.0001)      cg2d_iters(min,last) =      -1      13
(PID.TID 0000.0001)      cg2d_last_res =   1.06628084560992E-10
(PID.TID 0000.0001) // =======================================================
(PID.TID 0000.0001) // Begin MONITOR dynamic field statistics
(PID.TID 0000.0001) // =======================================================
(PID.TID 0000.0001) %MON time_tsnumber                =                    15
(PID.TID 0000.0001) %MON time_secondsf                =   5.4000000000000E+03
(PID.TID 0000.0001) %MON dynstat_eta_max              =   1.3454861408785E+03
(PID.TID 0000.0001) %MON dynstat_eta_min              =  -9.8656253255183E+02
(PID.TID 0000.0001) %MON dynstat_eta_mean             =  -4.2845394688523E-14
(PID.TID 0000.0001) %MON dynstat_eta_sd               =   7.8634597972950E+02
(PID.TID 0000.0001) %MON dynstat_eta_del2             =   4.3742285814316E-01
(PID.TID 0000.0001) %MON dynstat_uvel_max             =   1.8264690274587E+01
(PID.TID 0000.0001) %MON dynstat_uvel_min             =  -1.8274642172737E+01
(PID.TID 0000.0001) %MON dynstat_uvel_mean            =   3.3592315229679E-01
(PID.TID 0000.0001) %MON dynstat_uvel_sd              =   5.8624054998597E+00
(PID.TID 0000.0001) %MON dynstat_uvel_del2            =   1.1921075314844E-03
(PID.TID 0000.0001) %MON dynstat_vvel_max             =   1.8274134965470E+01
(PID.TID 0000.0001) %MON dynstat_vvel_min             =  -1.8265909979704E+01
(PID.TID 0000.0001) %MON dynstat_vvel_mean            =   3.3705541003853E-01
(PID.TID 0000.0001) %MON dynstat_vvel_sd              =   5.8625354119152E+00
(PID.TID 0000.0001) %MON dynstat_vvel_del2            =   1.1925910591478E-03
(PID.TID 0000.0001) %MON dynstat_wvel_max             =   1.7179751326262E-01
(PID.TID 0000.0001) %MON dynstat_wvel_min             =  -2.2441794227207E-01
(PID.TID 0000.0001) %MON dynstat_wvel_mean            =  -1.2705456182320E-16
(PID.TID 0000.0001) %MON dynstat_wvel_sd              =   5.7503626091697E-02
(PID.TID 0000.0001) %MON dynstat_wvel_del2            =   6.3651381889950E-05
(PID.TID 0000.0001) %MON dynstat_theta_max            =   1.1552674968247E+03
(PID.TID 0000.0001) %MON dynstat_theta_min            =   2.5671480660674E+02
(PID.TID 0000.0001) %MON dynstat_theta_mean           =   3.2789669375593E+02
(PID.TID 0000.0001) %MON dynstat_theta_sd             =   9.0370848038998E+01
(PID.TID 0000.0001) %MON dynstat_theta_del2           =   6.1669910592506E-04
(PID.TID 0000.0001) %MON dynstat_salt_max             =   2.0318887827093E-02
(PID.TID 0000.0001) %MON dynstat_salt_min             =   0.0000000000000E+00
(PID.TID 0000.0001) %MON dynstat_salt_mean            =   1.8473211182384E-03
(PID.TID 0000.0001) %MON dynstat_salt_sd              =   3.8379726556196E-03
(PID.TID 0000.0001) %MON dynstat_salt_del2            =   6.8991984696734E-07
(PID.TID 0000.0001) %MON advcfl_uvel_max              =   5.4221653444726E-02
(PID.TID 0000.0001) %MON advcfl_vvel_max              =   5.4208301257411E-02
(PID.TID 0000.0001) %MON advcfl_wvel_max              =   8.6504927907695E-03
(PID.TID 0000.0001) %MON advcfl_W_hf_max              =   9.2855811639914E-03
(PID.TID 0000.0001) %MON am_eta_mean                  =  -6.1631064230368E+10
(PID.TID 0000.0001) %MON am_uZo_mean                  =   6.1574621447642E+10
(PID.TID 0000.0001) %MON am_tot_mean                  =  -5.6442782725754E+07
(PID.TID 0000.0001) %MON pe_b_mean                    =   2.6188400664765E+00
(PID.TID 0000.0001) %MON ke_max                       =   1.6995127321666E+02
(PID.TID 0000.0001) %MON ke_mean                      =   3.4481785207294E+01
(PID.TID 0000.0001) %MON ke_vol                       =   5.0986421042785E+19
(PID.TID 0000.0001) %MON vort_r_min                   =  -3.8837977508538E-06
(PID.TID 0000.0001) %MON vort_r_max                   =   3.8855359547357E-06
(PID.TID 0000.0001) %MON vort_a_mean                  =  -4.4124393128133E-20
(PID.TID 0000.0001) %MON vort_a_sd                    =   8.4482745426487E-05
(PID.TID 0000.0001) %MON vort_p_mean                  =  -4.1673020913232E-20
(PID.TID 0000.0001) %MON vort_p_sd                    =   8.4222834814010E-05
(PID.TID 0000.0001) %MON surfExpan_theta_mean         =  -3.6229795020114E+00
(PID.TID 0000.0001) %MON surfExpan_salt_mean          =  -3.4129408578904E-04
(PID.TID 0000.0001) %MON surfExpan_Heat_mean          =  -3.1924061816932E+02
(PID.TID 0000.0001) %MON En_Budget_T2PE_mean          =   3.9522116983254E+01
(PID.TID 0000.0001) // =======================================================
(PID.TID 0000.0001) // End MONITOR dynamic field statistics
(PID.TID 0000.0001) // =======================================================
 cg2d: Sum(rhs),rhsMax =  -5.58793544769287E-09  1.20704166367853E+04
(PID.TID 0000.0001)      cg2d_init_res =   5.15148586231892E+04
(PID.TID 0000.0001)      cg2d_iters(min,last) =      -1      13
(PID.TID 0000.0001)      cg2d_last_res =   1.13796906142766E-10
(PID.TID 0000.0001) // =======================================================
(PID.TID 0000.0001) // Begin MONITOR dynamic field statistics
(PID.TID 0000.0001) // =======================================================
(PID.TID 0000.0001) %MON time_tsnumber                =                    16
(PID.TID 0000.0001) %MON time_secondsf                =   5.7600000000000E+03
(PID.TID 0000.0001) %MON dynstat_eta_max              =   1.5051118546266E+03
(PID.TID 0000.0001) %MON dynstat_eta_min              =  -1.1087739120090E+03
(PID.TID 0000.0001) %MON dynstat_eta_mean             =  -4.2845394688523E-14
(PID.TID 0000.0001) %MON dynstat_eta_sd               =   8.8366776918066E+02
(PID.TID 0000.0001) %MON dynstat_eta_del2             =   4.6426388776631E-01
(PID.TID 0000.0001) %MON dynstat_uvel_max             =   1.9352036970295E+01
(PID.TID 0000.0001) %MON dynstat_uvel_min             =  -1.9362870875344E+01
(PID.TID 0000.0001) %MON dynstat_uvel_mean            =   3.7861713551837E-01
(PID.TID 0000.0001) %MON dynstat_uvel_sd              =   6.1965836763418E+00
(PID.TID 0000.0001) %MON dynstat_uvel_del2            =   1.2534142783957E-03
(PID.TID 0000.0001) %MON dynstat_vvel_max             =   1.9362954383598E+01
(PID.TID 0000.0001) %MON dynstat_vvel_min             =  -1.9353236538300E+01
(PID.TID 0000.0001) %MON dynstat_vvel_mean            =   3.7990821524774E-01
(PID.TID 0000.0001) %MON dynstat_vvel_sd              =   6.1967242576443E+00
(PID.TID 0000.0001) %MON dynstat_vvel_del2            =   1.2539549626508E-03
(PID.TID 0000.0001) %MON dynstat_wvel_max             =   1.8509857771249E-01
(PID.TID 0000.0001) %MON dynstat_wvel_min             =  -2.3657430655734E-01
(PID.TID 0000.0001) %MON dynstat_wvel_mean            =   1.7611523421038E-17
(PID.TID 0000.0001) %MON dynstat_wvel_sd              =   6.0896297288487E-02
(PID.TID 0000.0001) %MON dynstat_wvel_del2            =   6.6926919072936E-05
(PID.TID 0000.0001) %MON dynstat_theta_max            =   1.1554446612570E+03
(PID.TID 0000.0001) %MON dynstat_theta_min            =   2.5681896446349E+02
(PID.TID 0000.0001) %MON dynstat_theta_mean           =   3.2789764806944E+02
(PID.TID 0000.0001) %MON dynstat_theta_sd             =   9.0371465058977E+01
(PID.TID 0000.0001) %MON dynstat_theta_del2           =   6.2780337275285E-04
(PID.TID 0000.0001) %MON dynstat_salt_max             =   2.0319141290337E-02
(PID.TID 0000.0001) %MON dynstat_salt_min             =   0.0000000000000E+00
(PID.TID 0000.0001) %MON dynstat_salt_mean            =   1.8504741312767E-03
(PID.TID 0000.0001) %MON dynstat_salt_sd              =   3.8406615414465E-03
(PID.TID 0000.0001) %MON dynstat_salt_del2            =   7.2469073030823E-07
(PID.TID 0000.0001) %MON advcfl_uvel_max              =   5.7659537424297E-02
(PID.TID 0000.0001) %MON advcfl_vvel_max              =   5.7644069245440E-02
(PID.TID 0000.0001) %MON advcfl_wvel_max              =   9.1184957559576E-03
(PID.TID 0000.0001) %MON advcfl_W_hf_max              =   9.7355864443793E-03
(PID.TID 0000.0001) %MON am_eta_mean                  =  -6.9874502132776E+10
(PID.TID 0000.0001) %MON am_uZo_mean                  =   6.9804836771305E+10
(PID.TID 0000.0001) %MON am_tot_mean                  =  -6.9665361471100E+07
(PID.TID 0000.0001) %MON pe_b_mean                    =   3.3071939509062E+00
(PID.TID 0000.0001) %MON ke_max                       =   1.9071869677815E+02
(PID.TID 0000.0001) %MON ke_mean                      =   3.8542360985356E+01
(PID.TID 0000.0001) %MON ke_vol                       =   5.0986421042785E+19
(PID.TID 0000.0001) %MON vort_r_min                   =  -4.3369505681993E-06
(PID.TID 0000.0001) %MON vort_r_max                   =   4.3385901162000E-06
(PID.TID 0000.0001) %MON vort_a_mean                  =  -3.9221682780562E-20
(PID.TID 0000.0001) %MON vort_a_sd                    =   8.4519180110805E-05
(PID.TID 0000.0001) %MON vort_p_mean                  =  -3.9221664607737E-20
(PID.TID 0000.0001) %MON vort_p_sd                    =   8.4224225564926E-05
(PID.TID 0000.0001) %MON surfExpan_theta_mean         =  -3.7901019574888E+00
(PID.TID 0000.0001) %MON surfExpan_salt_mean          =  -3.5807163610425E-04
(PID.TID 0000.0001) %MON surfExpan_Heat_mean          =  -3.3418501134263E+02
(PID.TID 0000.0001) %MON En_Budget_T2PE_mean          =   4.1733395960677E+01
(PID.TID 0000.0001) // =======================================================
(PID.TID 0000.0001) // End MONITOR dynamic field statistics
(PID.TID 0000.0001) // =======================================================
(PID.TID 0000.0001)   Exporting atmospheric fluxes at iter.        16
(PID.TID 0000.0001)   Importing oceanic fields at iteration        16
 cg2d: Sum(rhs),rhsMax =   6.51925802230835E-09  1.33954940935462E+04
(PID.TID 0000.0001)      cg2d_init_res =   5.37731242266687E+04
(PID.TID 0000.0001)      cg2d_iters(min,last) =      -1      13
(PID.TID 0000.0001)      cg2d_last_res =   1.20689575100167E-10
(PID.TID 0000.0001) // =======================================================
(PID.TID 0000.0001) // Begin MONITOR dynamic field statistics
(PID.TID 0000.0001) // =======================================================
(PID.TID 0000.0001) %MON time_tsnumber                =                    17
(PID.TID 0000.0001) %MON time_secondsf                =   6.1200000000000E+03
(PID.TID 0000.0001) %MON dynstat_eta_max              =   1.6705405133397E+03
(PID.TID 0000.0001) %MON dynstat_eta_min              =  -1.2363372695359E+03
(PID.TID 0000.0001) %MON dynstat_eta_mean             =  -1.2853618406557E-13
(PID.TID 0000.0001) %MON dynstat_eta_sd               =   9.8525799616256E+02
(PID.TID 0000.0001) %MON dynstat_eta_del2             =   4.9038414962935E-01
(PID.TID 0000.0001) %MON dynstat_uvel_max             =   2.0410558417834E+01
(PID.TID 0000.0001) %MON dynstat_uvel_min             =  -2.0422313896721E+01
(PID.TID 0000.0001) %MON dynstat_uvel_mean            =   4.2318609361580E-01
(PID.TID 0000.0001) %MON dynstat_uvel_sd              =   6.5212437507083E+00
(PID.TID 0000.0001) %MON dynstat_uvel_del2            =   1.3124323153826E-03
(PID.TID 0000.0001) %MON dynstat_vvel_max             =   2.0423049257768E+01
(PID.TID 0000.0001) %MON dynstat_vvel_min             =  -2.0411721344984E+01
(PID.TID 0000.0001) %MON dynstat_vvel_mean            =   4.2464476796153E-01
(PID.TID 0000.0001) %MON dynstat_vvel_sd              =   6.5213922599647E+00
(PID.TID 0000.0001) %MON dynstat_vvel_del2            =   1.3130368081107E-03
(PID.TID 0000.0001) %MON dynstat_wvel_max             =   1.9810110032732E-01
(PID.TID 0000.0001) %MON dynstat_wvel_min             =  -2.4775798697180E-01
(PID.TID 0000.0001) %MON dynstat_wvel_mean            =   6.5414229849571E-17
(PID.TID 0000.0001) %MON dynstat_wvel_sd              =   6.4223454170702E-02
(PID.TID 0000.0001) %MON dynstat_wvel_del2            =   7.0092267013588E-05
(PID.TID 0000.0001) %MON dynstat_theta_max            =   1.1556177892047E+03
(PID.TID 0000.0001) %MON dynstat_theta_min            =   2.5692133972012E+02
(PID.TID 0000.0001) %MON dynstat_theta_mean           =   3.2789848735906E+02
(PID.TID 0000.0001) %MON dynstat_theta_sd             =   9.0372218242638E+01
(PID.TID 0000.0001) %MON dynstat_theta_del2           =   6.3875132851833E-04
(PID.TID 0000.0001) %MON dynstat_salt_max             =   2.0319395949266E-02
(PID.TID 0000.0001) %MON dynstat_salt_min             =   0.0000000000000E+00
(PID.TID 0000.0001) %MON dynstat_salt_mean            =   1.8535981718749E-03
(PID.TID 0000.0001) %MON dynstat_salt_sd              =   3.8433733118111E-03
(PID.TID 0000.0001) %MON dynstat_salt_del2            =   7.5753703860472E-07
(PID.TID 0000.0001) %MON advcfl_uvel_max              =   6.1029136729161E-02
(PID.TID 0000.0001) %MON advcfl_vvel_max              =   6.1010593776308E-02
(PID.TID 0000.0001) %MON advcfl_wvel_max              =   9.5495583843519E-03
(PID.TID 0000.0001) %MON advcfl_W_hf_max              =   1.0141861398976E-02
(PID.TID 0000.0001) %MON am_eta_mean                  =  -7.8522661197721E+10
(PID.TID 0000.0001) %MON am_uZo_mean                  =   7.8438123788822E+10
(PID.TID 0000.0001) %MON am_tot_mean                  =  -8.4537408898453E+07
(PID.TID 0000.0001) %MON pe_b_mean                    =   4.1113227517840E+00
(PID.TID 0000.0001) %MON ke_max                       =   2.1219181459617E+02
(PID.TID 0000.0001) %MON ke_mean                      =   4.2707293356766E+01
(PID.TID 0000.0001) %MON ke_vol                       =   5.0986421042785E+19
(PID.TID 0000.0001) %MON vort_r_min                   =  -4.8061811828601E-06
(PID.TID 0000.0001) %MON vort_r_max                   =   4.8076874380876E-06
(PID.TID 0000.0001) %MON vort_a_mean                  =   3.1867617259207E-20
(PID.TID 0000.0001) %MON vort_a_sd                    =   8.4557407630122E-05
(PID.TID 0000.0001) %MON vort_p_mean                  =   3.1867600661416E-20
(PID.TID 0000.0001) %MON vort_p_sd                    =   8.4225620056204E-05
(PID.TID 0000.0001) %MON surfExpan_theta_mean         =  -3.9447281634625E+00
(PID.TID 0000.0001) %MON surfExpan_salt_mean          =  -3.7383561367070E-04
(PID.TID 0000.0001) %MON surfExpan_Heat_mean          =  -3.4805864461402E+02
(PID.TID 0000.0001) %MON En_Budget_T2PE_mean          =   4.3873196844589E+01
(PID.TID 0000.0001) // =======================================================
(PID.TID 0000.0001) // End MONITOR dynamic field statistics
(PID.TID 0000.0001) // =======================================================
 cg2d: Sum(rhs),rhsMax =   1.11758708953857E-08  1.47627691457449E+04
(PID.TID 0000.0001)      cg2d_init_res =   5.58740504773197E+04
(PID.TID 0000.0001)      cg2d_iters(min,last) =      -1      13
(PID.TID 0000.0001)      cg2d_last_res =   1.27694566228319E-10
(PID.TID 0000.0001) // =======================================================
(PID.TID 0000.0001) // Begin MONITOR dynamic field statistics
(PID.TID 0000.0001) // =======================================================
(PID.TID 0000.0001) %MON time_tsnumber                =                    18
(PID.TID 0000.0001) %MON time_secondsf                =   6.4800000000000E+03
(PID.TID 0000.0001) %MON dynstat_eta_max              =   1.8413046794525E+03
(PID.TID 0000.0001) %MON dynstat_eta_min              =  -1.3688587959302E+03
(PID.TID 0000.0001) %MON dynstat_eta_mean             =  -1.7138157875409E-13
(PID.TID 0000.0001) %MON dynstat_eta_sd               =   1.0908191332235E+03
(PID.TID 0000.0001) %MON dynstat_eta_del2             =   5.1570140539624E-01
(PID.TID 0000.0001) %MON dynstat_uvel_max             =   2.1438219824224E+01
(PID.TID 0000.0001) %MON dynstat_uvel_min             =  -2.1450944841275E+01
(PID.TID 0000.0001) %MON dynstat_uvel_mean            =   4.6948958900917E-01
(PID.TID 0000.0001) %MON dynstat_uvel_sd              =   6.8360981082625E+00
(PID.TID 0000.0001) %MON dynstat_uvel_del2            =   1.3692839771666E-03
(PID.TID 0000.0001) %MON dynstat_vvel_max             =   2.1452365534947E+01
(PID.TID 0000.0001) %MON dynstat_vvel_min             =  -2.1439336018777E+01
(PID.TID 0000.0001) %MON dynstat_vvel_mean            =   4.7112383824806E-01
(PID.TID 0000.0001) %MON dynstat_vvel_sd              =   6.8362513464367E+00
(PID.TID 0000.0001) %MON dynstat_vvel_del2            =   1.3699574108335E-03
(PID.TID 0000.0001) %MON dynstat_wvel_max             =   2.1073275111282E-01
(PID.TID 0000.0001) %MON dynstat_wvel_min             =  -2.5789654946996E-01
(PID.TID 0000.0001) %MON dynstat_wvel_mean            =   7.0446093684153E-17
(PID.TID 0000.0001) %MON dynstat_wvel_sd              =   6.7481664789176E-02
(PID.TID 0000.0001) %MON dynstat_wvel_del2            =   7.3132537820832E-05
(PID.TID 0000.0001) %MON dynstat_theta_max            =   1.1557682929843E+03
(PID.TID 0000.0001) %MON dynstat_theta_min            =   2.5702186404284E+02
(PID.TID 0000.0001) %MON dynstat_theta_mean           =   3.2789923546105E+02
(PID.TID 0000.0001) %MON dynstat_theta_sd             =   9.0373092058639E+01
(PID.TID 0000.0001) %MON dynstat_theta_del2           =   6.4747267326838E-04
(PID.TID 0000.0001) %MON dynstat_salt_max             =   2.0319651574427E-02
(PID.TID 0000.0001) %MON dynstat_salt_min             =   0.0000000000000E+00
(PID.TID 0000.0001) %MON dynstat_salt_mean            =   1.8567045019920E-03
(PID.TID 0000.0001) %MON dynstat_salt_sd              =   3.8461262802565E-03
(PID.TID 0000.0001) %MON dynstat_salt_del2            =   7.8943057270118E-07
(PID.TID 0000.0001) %MON advcfl_uvel_max              =   6.4322283015295E-02
(PID.TID 0000.0001) %MON advcfl_vvel_max              =   6.4300715563632E-02
(PID.TID 0000.0001) %MON advcfl_wvel_max              =   9.9403380952019E-03
(PID.TID 0000.0001) %MON advcfl_W_hf_max              =   1.0501009703286E-02
(PID.TID 0000.0001) %MON am_eta_mean                  =  -8.7550048897405E+10
(PID.TID 0000.0001) %MON am_uZo_mean                  =   8.7448952006901E+10
(PID.TID 0000.0001) %MON am_tot_mean                  =  -1.0109689050386E+08
(PID.TID 0000.0001) %MON pe_b_mean                    =   5.0394962819888E+00
(PID.TID 0000.0001) %MON ke_max                       =   2.3427663531273E+02
(PID.TID 0000.0001) %MON ke_mean                      =   4.6954473981465E+01
(PID.TID 0000.0001) %MON ke_vol                       =   5.0986421042785E+19
(PID.TID 0000.0001) %MON vort_r_min                   =  -5.2901689948939E-06
(PID.TID 0000.0001) %MON vort_r_max                   =   5.2915087315156E-06
(PID.TID 0000.0001) %MON vort_a_mean                  =  -2.3042738633580E-19
(PID.TID 0000.0001) %MON vort_a_sd                    =   8.4597333152447E-05
(PID.TID 0000.0001) %MON vort_p_mean                  =  -2.2797589867223E-19
(PID.TID 0000.0001) %MON vort_p_sd                    =   8.4227023038702E-05
(PID.TID 0000.0001) %MON surfExpan_theta_mean         =  -4.0864682309753E+00
(PID.TID 0000.0001) %MON surfExpan_salt_mean          =  -3.8854823507676E-04
(PID.TID 0000.0001) %MON surfExpan_Heat_mean          =  -3.6082583735178E+02
(PID.TID 0000.0001) %MON En_Budget_T2PE_mean          =   4.5938868336218E+01
(PID.TID 0000.0001) // =======================================================
(PID.TID 0000.0001) // End MONITOR dynamic field statistics
(PID.TID 0000.0001) // =======================================================
 cg2d: Sum(rhs),rhsMax =   5.58793544769287E-09  1.61688114078560E+04
(PID.TID 0000.0001)      cg2d_init_res =   5.78118346911141E+04
(PID.TID 0000.0001)      cg2d_iters(min,last) =      -1      13
(PID.TID 0000.0001)      cg2d_last_res =   1.35111524661384E-10
(PID.TID 0000.0001) // =======================================================
(PID.TID 0000.0001) // Begin MONITOR dynamic field statistics
(PID.TID 0000.0001) // =======================================================
(PID.TID 0000.0001) %MON time_tsnumber                =                    19
(PID.TID 0000.0001) %MON time_secondsf                =   6.8400000000000E+03
(PID.TID 0000.0001) %MON dynstat_eta_max              =   2.0169840936251E+03
(PID.TID 0000.0001) %MON dynstat_eta_min              =  -1.5059322890194E+03
(PID.TID 0000.0001) %MON dynstat_eta_mean             =   4.2845394688523E-14
(PID.TID 0000.0001) %MON dynstat_eta_sd               =   1.2000431519828E+03
(PID.TID 0000.0001) %MON dynstat_eta_del2             =   5.4017853255748E-01
(PID.TID 0000.0001) %MON dynstat_uvel_max             =   2.2433092956262E+01
(PID.TID 0000.0001) %MON dynstat_uvel_min             =  -2.2446837007616E+01
(PID.TID 0000.0001) %MON dynstat_uvel_mean            =   5.1738300608324E-01
(PID.TID 0000.0001) %MON dynstat_uvel_sd              =   7.1408977277999E+00
(PID.TID 0000.0001) %MON dynstat_uvel_del2            =   1.4240709200308E-03
(PID.TID 0000.0001) %MON dynstat_vvel_max             =   2.2448945561023E+01
(PID.TID 0000.0001) %MON dynstat_vvel_min             =  -2.2434159098640E+01
(PID.TID 0000.0001) %MON dynstat_vvel_mean            =   5.1920017376172E-01
(PID.TID 0000.0001) %MON dynstat_vvel_sd              =   7.1410512457994E+00
(PID.TID 0000.0001) %MON dynstat_vvel_del2            =   1.4248210826185E-03
(PID.TID 0000.0001) %MON dynstat_wvel_max             =   2.2289643106128E-01
(PID.TID 0000.0001) %MON dynstat_wvel_min             =  -2.6694026879892E-01
(PID.TID 0000.0001) %MON dynstat_wvel_mean            =   1.4340811928560E-16
(PID.TID 0000.0001) %MON dynstat_wvel_sd              =   7.0667243003354E-02
(PID.TID 0000.0001) %MON dynstat_wvel_del2            =   7.6027717104227E-05
(PID.TID 0000.0001) %MON dynstat_theta_max            =   1.1558950966506E+03
(PID.TID 0000.0001) %MON dynstat_theta_min            =   2.5712074214788E+02
(PID.TID 0000.0001) %MON dynstat_theta_mean           =   3.2789988098365E+02
(PID.TID 0000.0001) %MON dynstat_theta_sd             =   9.0374090795067E+01
(PID.TID 0000.0001) %MON dynstat_theta_del2           =   6.5278637785198E-04
(PID.TID 0000.0001) %MON dynstat_salt_max             =   2.0319908229487E-02
(PID.TID 0000.0001) %MON dynstat_salt_min             =   0.0000000000000E+00
(PID.TID 0000.0001) %MON dynstat_salt_mean            =   1.8598011426673E-03
(PID.TID 0000.0001) %MON dynstat_salt_sd              =   3.8489301811158E-03
(PID.TID 0000.0001) %MON dynstat_salt_del2            =   8.2022058629319E-07
(PID.TID 0000.0001) %MON advcfl_uvel_max              =   6.7566186795015E-02
(PID.TID 0000.0001) %MON advcfl_vvel_max              =   6.7542047954108E-02
(PID.TID 0000.0001) %MON advcfl_wvel_max              =   1.0288918283470E-02
(PID.TID 0000.0001) %MON advcfl_W_hf_max              =   1.0810929633911E-02
(PID.TID 0000.0001) %MON am_eta_mean                  =  -9.6930129824059E+10
(PID.TID 0000.0001) %MON am_uZo_mean                  =   9.6810760448472E+10
(PID.TID 0000.0001) %MON am_tot_mean                  =  -1.1936937558731E+08
(PID.TID 0000.0001) %MON pe_b_mean                    =   6.0992349211406E+00
(PID.TID 0000.0001) %MON ke_max                       =   2.5688060306417E+02
(PID.TID 0000.0001) %MON ke_mean                      =   5.1262143624917E+01
(PID.TID 0000.0001) %MON ke_vol                       =   5.0986421042785E+19
(PID.TID 0000.0001) %MON vort_r_min                   =  -5.7875759697562E-06
(PID.TID 0000.0001) %MON vort_r_max                   =   5.7887210150022E-06
(PID.TID 0000.0001) %MON vort_a_mean                  =  -6.1283879344629E-20
(PID.TID 0000.0001) %MON vort_a_sd                    =   8.4638856996400E-05
(PID.TID 0000.0001) %MON vort_p_mean                  =  -6.3735193473220E-20
(PID.TID 0000.0001) %MON vort_p_sd                    =   8.4228439415920E-05
(PID.TID 0000.0001) %MON surfExpan_theta_mean         =  -4.2149881620020E+00
(PID.TID 0000.0001) %MON surfExpan_salt_mean          =  -4.0217383634208E-04
(PID.TID 0000.0001) %MON surfExpan_Heat_mean          =  -3.7245555749648E+02
(PID.TID 0000.0001) %MON En_Budget_T2PE_mean          =   4.7928039832311E+01
(PID.TID 0000.0001) // =======================================================
(PID.TID 0000.0001) // End MONITOR dynamic field statistics
(PID.TID 0000.0001) // =======================================================
 cg2d: Sum(rhs),rhsMax =  -7.45058059692383E-09  1.76106311301936E+04
(PID.TID 0000.0001)      cg2d_init_res =   5.95812312149865E+04
(PID.TID 0000.0001)      cg2d_iters(min,last) =      -1      14
(PID.TID 0000.0001)      cg2d_last_res =   6.84370070881366E-12
(PID.TID 0000.0001) // =======================================================
(PID.TID 0000.0001) // Begin MONITOR dynamic field statistics
(PID.TID 0000.0001) // =======================================================
(PID.TID 0000.0001) %MON time_tsnumber                =                    20
(PID.TID 0000.0001) %MON time_secondsf                =   7.2000000000000E+03
(PID.TID 0000.0001) %MON dynstat_eta_max              =   2.1972084241098E+03
(PID.TID 0000.0001) %MON dynstat_eta_min              =  -1.6471237943319E+03
(PID.TID 0000.0001) %MON dynstat_eta_mean             =   2.9991776281966E-13
(PID.TID 0000.0001) %MON dynstat_eta_sd               =   1.3126122863902E+03
(PID.TID 0000.0001) %MON dynstat_eta_del2             =   5.6381290965783E-01
(PID.TID 0000.0001) %MON dynstat_uvel_max             =   2.3421447955642E+01
(PID.TID 0000.0001) %MON dynstat_uvel_min             =  -2.3434934968392E+01
(PID.TID 0000.0001) %MON dynstat_uvel_mean            =   5.6671799236944E-01
(PID.TID 0000.0001) %MON dynstat_uvel_sd              =   7.4354300204490E+00
(PID.TID 0000.0001) %MON dynstat_uvel_del2            =   1.4768088652692E-03
(PID.TID 0000.0001) %MON dynstat_vvel_max             =   2.3436225585704E+01
(PID.TID 0000.0001) %MON dynstat_vvel_min             =  -2.3422454067776E+01
(PID.TID 0000.0001) %MON dynstat_vvel_mean            =   5.6872494719606E-01
(PID.TID 0000.0001) %MON dynstat_vvel_sd              =   7.4355783899525E+00
(PID.TID 0000.0001) %MON dynstat_vvel_del2            =   1.4776345839157E-03
(PID.TID 0000.0001) %MON dynstat_wvel_max             =   2.3452824168434E-01
(PID.TID 0000.0001) %MON dynstat_wvel_min             =  -2.7486100991423E-01
(PID.TID 0000.0001) %MON dynstat_wvel_mean            =  -1.0063727669165E-17
(PID.TID 0000.0001) %MON dynstat_wvel_sd              =   7.3776836590921E-02
(PID.TID 0000.0001) %MON dynstat_wvel_del2            =   7.8767178705939E-05
(PID.TID 0000.0001) %MON dynstat_theta_max            =   1.1560219323779E+03
(PID.TID 0000.0001) %MON dynstat_theta_min            =   2.5721802388022E+02
(PID.TID 0000.0001) %MON dynstat_theta_mean           =   3.2790041921899E+02
(PID.TID 0000.0001) %MON dynstat_theta_sd             =   9.0375214875808E+01
(PID.TID 0000.0001) %MON dynstat_theta_del2           =   6.5444688694539E-04
(PID.TID 0000.0001) %MON dynstat_salt_max             =   2.0320165987649E-02
(PID.TID 0000.0001) %MON dynstat_salt_min             =   0.0000000000000E+00
(PID.TID 0000.0001) %MON dynstat_salt_mean            =   1.8628946049455E-03
(PID.TID 0000.0001) %MON dynstat_salt_sd              =   3.8517972623821E-03
(PID.TID 0000.0001) %MON dynstat_salt_del2            =   8.4978798527683E-07
(PID.TID 0000.0001) %MON advcfl_uvel_max              =   7.0752010323718E-02
(PID.TID 0000.0001) %MON advcfl_vvel_max              =   7.0725026414527E-02
(PID.TID 0000.0001) %MON advcfl_wvel_max              =   1.0594214514895E-02
(PID.TID 0000.0001) %MON advcfl_W_hf_max              =   1.1070757338302E-02
(PID.TID 0000.0001) %MON am_eta_mean                  =  -1.0663539400224E+11
(PID.TID 0000.0001) %MON am_uZo_mean                  =   1.0649602400212E+11
(PID.TID 0000.0001) %MON am_tot_mean                  =  -1.3937000011426E+08
(PID.TID 0000.0001) %MON pe_b_mean                    =   7.2971717020295E+00
(PID.TID 0000.0001) %MON ke_max                       =   2.7990105905108E+02
(PID.TID 0000.0001) %MON ke_mean                      =   5.5609031465502E+01
(PID.TID 0000.0001) %MON ke_vol                       =   5.0986421042785E+19
(PID.TID 0000.0001) %MON vort_r_min                   =  -6.2970228260838E-06
(PID.TID 0000.0001) %MON vort_r_max                   =   6.2979487170394E-06
(PID.TID 0000.0001) %MON vort_a_mean                  =   7.1089300039769E-20
(PID.TID 0000.0001) %MON vort_a_sd                    =   8.4681873723244E-05
(PID.TID 0000.0001) %MON vort_p_mean                  =   7.1089249634858E-20
(PID.TID 0000.0001) %MON vort_p_sd                    =   8.4229873190440E-05
(PID.TID 0000.0001) %MON surfExpan_theta_mean         =  -4.3299986491260E+00
(PID.TID 0000.0001) %MON surfExpan_salt_mean          =  -4.1468000106043E-04
(PID.TID 0000.0001) %MON surfExpan_Heat_mean          =  -3.8292033556821E+02
(PID.TID 0000.0001) %MON En_Budget_T2PE_mean          =   4.9838443651201E+01
(PID.TID 0000.0001) // =======================================================
(PID.TID 0000.0001) // End MONITOR dynamic field statistics
(PID.TID 0000.0001) // =======================================================
 cg2d: Sum(rhs),rhsMax =  -2.04890966415405E-08  1.90856645331000E+04
(PID.TID 0000.0001)      cg2d_init_res =   6.11775444704996E+04
(PID.TID 0000.0001)      cg2d_iters(min,last) =      -1      14
(PID.TID 0000.0001)      cg2d_last_res =   7.24096465844114E-12
(PID.TID 0000.0001) // =======================================================
(PID.TID 0000.0001) // Begin MONITOR dynamic field statistics
(PID.TID 0000.0001) // =======================================================
(PID.TID 0000.0001) %MON time_tsnumber                =                    21
(PID.TID 0000.0001) %MON time_secondsf                =   7.5600000000000E+03
(PID.TID 0000.0001) %MON dynstat_eta_max              =   2.3816537390364E+03
(PID.TID 0000.0001) %MON dynstat_eta_min              =  -1.7919948352291E+03
(PID.TID 0000.0001) %MON dynstat_eta_mean             =  -5.9983552563933E-13
(PID.TID 0000.0001) %MON dynstat_eta_sd               =   1.4281999038074E+03
(PID.TID 0000.0001) %MON dynstat_eta_del2             =   5.8664278676225E-01
(PID.TID 0000.0001) %MON dynstat_uvel_max             =   2.4386838377786E+01
(PID.TID 0000.0001) %MON dynstat_uvel_min             =  -2.4401196643649E+01
(PID.TID 0000.0001) %MON dynstat_uvel_mean            =   6.1734290782951E-01
(PID.TID 0000.0001) %MON dynstat_uvel_sd              =   7.7195264745513E+00
(PID.TID 0000.0001) %MON dynstat_uvel_del2            =   1.5275323078433E-03
(PID.TID 0000.0001) %MON dynstat_vvel_max             =   2.4402930863301E+01
(PID.TID 0000.0001) %MON dynstat_vvel_min             =  -2.4387405699411E+01
(PID.TID 0000.0001) %MON dynstat_vvel_mean            =   6.1954631869674E-01
(PID.TID 0000.0001) %MON dynstat_vvel_sd              =   7.7196632638418E+00
(PID.TID 0000.0001) %MON dynstat_vvel_del2            =   1.5284309233134E-03
(PID.TID 0000.0001) %MON dynstat_wvel_max             =   2.4558123310825E-01
(PID.TID 0000.0001) %MON dynstat_wvel_min             =  -2.8164882505234E-01
(PID.TID 0000.0001) %MON dynstat_wvel_mean            =   4.7802706428532E-17
(PID.TID 0000.0001) %MON dynstat_wvel_sd              =   7.6807210743041E-02
(PID.TID 0000.0001) %MON dynstat_wvel_del2            =   8.1343452796161E-05
(PID.TID 0000.0001) %MON dynstat_theta_max            =   1.1561355902596E+03
(PID.TID 0000.0001) %MON dynstat_theta_min            =   2.5731374211371E+02
(PID.TID 0000.0001) %MON dynstat_theta_mean           =   3.2790083539885E+02
(PID.TID 0000.0001) %MON dynstat_theta_sd             =   9.0376470436990E+01
(PID.TID 0000.0001) %MON dynstat_theta_del2           =   6.5334965544040E-04
(PID.TID 0000.0001) %MON dynstat_salt_max             =   2.0320424934214E-02
(PID.TID 0000.0001) %MON dynstat_salt_min             =   0.0000000000000E+00
(PID.TID 0000.0001) %MON dynstat_salt_mean            =   1.8659959534118E-03
(PID.TID 0000.0001) %MON dynstat_salt_sd              =   3.8547354787331E-03
(PID.TID 0000.0001) %MON dynstat_salt_del2            =   8.7785358594679E-07
(PID.TID 0000.0001) %MON advcfl_uvel_max              =   7.3849927117860E-02
(PID.TID 0000.0001) %MON advcfl_vvel_max              =   7.3820076688154E-02
(PID.TID 0000.0001) %MON advcfl_wvel_max              =   1.0855843363902E-02
(PID.TID 0000.0001) %MON advcfl_W_hf_max              =   1.1280609877234E-02
(PID.TID 0000.0001) %MON am_eta_mean                  =  -1.1663743010611E+11
(PID.TID 0000.0001) %MON am_uZo_mean                  =   1.1647632692444E+11
(PID.TID 0000.0001) %MON am_tot_mean                  =  -1.6110318167500E+08
(PID.TID 0000.0001) %MON pe_b_mean                    =   8.6389236183387E+00
(PID.TID 0000.0001) %MON ke_max                       =   3.0324484366851E+02
(PID.TID 0000.0001) %MON ke_mean                      =   5.9974619902880E+01
(PID.TID 0000.0001) %MON ke_vol                       =   5.0986421042785E+19
(PID.TID 0000.0001) %MON vort_r_min                   =  -6.8170696318527E-06
(PID.TID 0000.0001) %MON vort_r_max                   =   6.8177545904145E-06
(PID.TID 0000.0001) %MON vort_a_mean                  =  -4.9027103475703E-20
(PID.TID 0000.0001) %MON vort_a_sd                    =   8.4726276010583E-05
(PID.TID 0000.0001) %MON vort_p_mean                  =  -4.6575712160081E-20
(PID.TID 0000.0001) %MON vort_p_sd                    =   8.4231331103658E-05
(PID.TID 0000.0001) %MON surfExpan_theta_mean         =  -4.4312613254606E+00
(PID.TID 0000.0001) %MON surfExpan_salt_mean          =  -4.2603578746003E-04
(PID.TID 0000.0001) %MON surfExpan_Heat_mean          =  -3.9219680408785E+02
(PID.TID 0000.0001) %MON En_Budget_T2PE_mean          =   5.1668091503053E+01
(PID.TID 0000.0001) // =======================================================
(PID.TID 0000.0001) // End MONITOR dynamic field statistics
(PID.TID 0000.0001) // =======================================================
 cg2d: Sum(rhs),rhsMax =  -2.79396772384644E-08  2.05916953352605E+04
(PID.TID 0000.0001)      cg2d_init_res =   6.25966315052940E+04
(PID.TID 0000.0001)      cg2d_iters(min,last) =      -1      14
(PID.TID 0000.0001)      cg2d_last_res =   7.67983642704744E-12
(PID.TID 0000.0001) // =======================================================
(PID.TID 0000.0001) // Begin MONITOR dynamic field statistics
(PID.TID 0000.0001) // =======================================================
(PID.TID 0000.0001) %MON time_tsnumber                =                    22
(PID.TID 0000.0001) %MON time_secondsf                =   7.9200000000000E+03
(PID.TID 0000.0001) %MON dynstat_eta_max              =   2.5700317767124E+03
(PID.TID 0000.0001) %MON dynstat_eta_min              =  -1.9401020233326E+03
(PID.TID 0000.0001) %MON dynstat_eta_mean             =  -1.2853618406557E-13
(PID.TID 0000.0001) %MON dynstat_eta_sd               =   1.5464714547111E+03
(PID.TID 0000.0001) %MON dynstat_eta_del2             =   6.0872862007681E-01
(PID.TID 0000.0001) %MON dynstat_uvel_max             =   2.5317930568122E+01
(PID.TID 0000.0001) %MON dynstat_uvel_min             =  -2.5333162776373E+01
(PID.TID 0000.0001) %MON dynstat_uvel_mean            =   6.6910330702044E-01
(PID.TID 0000.0001) %MON dynstat_uvel_sd              =   7.9930477364914E+00
(PID.TID 0000.0001) %MON dynstat_uvel_del2            =   1.5760163039561E-03
(PID.TID 0000.0001) %MON dynstat_vvel_max             =   2.5335261475567E+01
(PID.TID 0000.0001) %MON dynstat_vvel_min             =  -2.5318050263194E+01
(PID.TID 0000.0001) %MON dynstat_vvel_mean            =   6.7150992210377E-01
(PID.TID 0000.0001) %MON dynstat_vvel_sd              =   7.9931636444392E+00
(PID.TID 0000.0001) %MON dynstat_vvel_del2            =   1.5769732988738E-03
(PID.TID 0000.0001) %MON dynstat_wvel_max             =   2.5602283968832E-01
(PID.TID 0000.0001) %MON dynstat_wvel_min             =  -2.8730818381688E-01
(PID.TID 0000.0001) %MON dynstat_wvel_mean            =  -1.0063727669165E-17
(PID.TID 0000.0001) %MON dynstat_wvel_sd              =   7.9756124943022E-02
(PID.TID 0000.0001) %MON dynstat_wvel_del2            =   8.3755148119286E-05
(PID.TID 0000.0001) %MON dynstat_theta_max            =   1.1562656650634E+03
(PID.TID 0000.0001) %MON dynstat_theta_min            =   2.5740792239134E+02
(PID.TID 0000.0001) %MON dynstat_theta_mean           =   3.2790113722795E+02
(PID.TID 0000.0001) %MON dynstat_theta_sd             =   9.0377850847626E+01
(PID.TID 0000.0001) %MON dynstat_theta_del2           =   6.5094381967790E-04
(PID.TID 0000.0001) %MON dynstat_salt_max             =   2.0320685169172E-02
(PID.TID 0000.0001) %MON dynstat_salt_min             =   0.0000000000000E+00
(PID.TID 0000.0001) %MON dynstat_salt_mean            =   1.8691101796890E-03
(PID.TID 0000.0001) %MON dynstat_salt_sd              =   3.8577664027591E-03
(PID.TID 0000.0001) %MON dynstat_salt_del2            =   9.0360131053883E-07
(PID.TID 0000.0001) %MON advcfl_uvel_max              =   7.6854705112611E-02
(PID.TID 0000.0001) %MON advcfl_vvel_max              =   7.6823110182239E-02
(PID.TID 0000.0001) %MON advcfl_wvel_max              =   1.1073977106432E-02
(PID.TID 0000.0001) %MON advcfl_W_hf_max              =   1.1549511929111E-02
(PID.TID 0000.0001) %MON am_eta_mean                  =  -1.2690700150173E+11
(PID.TID 0000.0001) %MON am_uZo_mean                  =   1.2672243946834E+11
(PID.TID 0000.0001) %MON am_tot_mean                  =  -1.8456203338527E+08
(PID.TID 0000.0001) %MON pe_b_mean                    =   1.0128973882754E+01
(PID.TID 0000.0001) %MON ke_max                       =   3.2682126771001E+02
(PID.TID 0000.0001) %MON ke_mean                      =   6.4339050988053E+01
(PID.TID 0000.0001) %MON ke_vol                       =   5.0986421042785E+19
(PID.TID 0000.0001) %MON vort_r_min                   =  -7.3462013044670E-06
(PID.TID 0000.0001) %MON vort_r_max                   =   7.3466266348457E-06
(PID.TID 0000.0001) %MON vort_a_mean                  =  -9.8054206951406E-20
(PID.TID 0000.0001) %MON vort_a_sd                    =   8.4771943420479E-05
(PID.TID 0000.0001) %MON vort_p_mean                  =  -9.5602771035350E-20
(PID.TID 0000.0001) %MON vort_p_sd                    =   8.4232811362147E-05
(PID.TID 0000.0001) %MON surfExpan_theta_mean         =  -4.5185765925562E+00
(PID.TID 0000.0001) %MON surfExpan_salt_mean          =  -4.3621572951703E-04
(PID.TID 0000.0001) %MON surfExpan_Heat_mean          =  -4.0026472914146E+02
(PID.TID 0000.0001) %MON En_Budget_T2PE_mean          =   5.3414901459899E+01
(PID.TID 0000.0001) // =======================================================
(PID.TID 0000.0001) // End MONITOR dynamic field statistics
(PID.TID 0000.0001) // =======================================================
 cg2d: Sum(rhs),rhsMax =   7.45058059692383E-09  2.21267160701031E+04
(PID.TID 0000.0001)      cg2d_init_res =   6.38348688224836E+04
(PID.TID 0000.0001)      cg2d_iters(min,last) =      -1      14
(PID.TID 0000.0001)      cg2d_last_res =   8.16270373596160E-12
(PID.TID 0000.0001) // =======================================================
(PID.TID 0000.0001) // Begin MONITOR dynamic field statistics
(PID.TID 0000.0001) // =======================================================
(PID.TID 0000.0001) %MON time_tsnumber                =                    23
(PID.TID 0000.0001) %MON time_secondsf                =   8.2800000000000E+03
(PID.TID 0000.0001) %MON dynstat_eta_max              =   2.7649261794281E+03
(PID.TID 0000.0001) %MON dynstat_eta_min              =  -2.0910057463230E+03
(PID.TID 0000.0001) %MON dynstat_eta_mean             =  -8.5690789377047E-14
(PID.TID 0000.0001) %MON dynstat_eta_sd               =   1.6670854446544E+03
(PID.TID 0000.0001) %MON dynstat_eta_del2             =   6.3012755242569E-01
(PID.TID 0000.0001) %MON dynstat_uvel_max             =   2.6273572328758E+01
(PID.TID 0000.0001) %MON dynstat_uvel_min             =  -2.6271886209938E+01
(PID.TID 0000.0001) %MON dynstat_uvel_mean            =   7.2184235834156E-01
(PID.TID 0000.0001) %MON dynstat_uvel_sd              =   8.2559109587974E+00
(PID.TID 0000.0001) %MON dynstat_uvel_del2            =   1.6222903637010E-03
(PID.TID 0000.0001) %MON dynstat_vvel_max             =   2.6262367281853E+01
(PID.TID 0000.0001) %MON dynstat_vvel_min             =  -2.6258090172095E+01
(PID.TID 0000.0001) %MON dynstat_vvel_mean            =   7.2445942286553E-01
(PID.TID 0000.0001) %MON dynstat_vvel_sd              =   8.2559983165002E+00
(PID.TID 0000.0001) %MON dynstat_vvel_del2            =   1.6233085490835E-03
(PID.TID 0000.0001) %MON dynstat_wvel_max             =   2.6582946809559E-01
(PID.TID 0000.0001) %MON dynstat_wvel_min             =  -2.9185491154025E-01
(PID.TID 0000.0001) %MON dynstat_wvel_mean            =  -1.7863116612767E-16
(PID.TID 0000.0001) %MON dynstat_wvel_sd              =   8.2620396856095E-02
(PID.TID 0000.0001) %MON dynstat_wvel_del2            =   8.5997337385285E-05
(PID.TID 0000.0001) %MON dynstat_theta_max            =   1.1564193091253E+03
(PID.TID 0000.0001) %MON dynstat_theta_min            =   2.5750058539990E+02
(PID.TID 0000.0001) %MON dynstat_theta_mean           =   3.2790132463532E+02
(PID.TID 0000.0001) %MON dynstat_theta_sd             =   9.0379352136316E+01
(PID.TID 0000.0001) %MON dynstat_theta_del2           =   6.4935188430494E-04
(PID.TID 0000.0001) %MON dynstat_salt_max             =   2.0320946809588E-02
(PID.TID 0000.0001) %MON dynstat_salt_min             =   0.0000000000000E+00
(PID.TID 0000.0001) %MON dynstat_salt_mean            =   1.8722456284575E-03
(PID.TID 0000.0001) %MON dynstat_salt_sd              =   3.8609054555483E-03
(PID.TID 0000.0001) %MON dynstat_salt_del2            =   9.2735031107065E-07
(PID.TID 0000.0001) %MON advcfl_uvel_max              =   7.9761452117956E-02
(PID.TID 0000.0001) %MON advcfl_vvel_max              =   7.9729023597987E-02
(PID.TID 0000.0001) %MON advcfl_wvel_max              =   1.1249225712472E-02
(PID.TID 0000.0001) %MON advcfl_W_hf_max              =   1.1860353155583E-02
(PID.TID 0000.0001) %MON am_eta_mean                  =  -1.3741412557079E+11
(PID.TID 0000.0001) %MON am_uZo_mean                  =   1.3720439837627E+11
(PID.TID 0000.0001) %MON am_tot_mean                  =  -2.0972719452596E+08
(PID.TID 0000.0001) %MON pe_b_mean                    =   1.1770566209513E+01
(PID.TID 0000.0001) %MON ke_max                       =   3.5054174694031E+02
(PID.TID 0000.0001) %MON ke_mean                      =   6.8683735903950E+01
(PID.TID 0000.0001) %MON ke_vol                       =   5.0986421042785E+19
(PID.TID 0000.0001) %MON vort_r_min                   =  -7.8828196382018E-06
(PID.TID 0000.0001) %MON vort_r_max                   =   7.8829694932806E-06
(PID.TID 0000.0001) %MON vort_a_mean                  =  -2.6229500359501E-19
(PID.TID 0000.0001) %MON vort_a_sd                    =   8.4818764665424E-05
(PID.TID 0000.0001) %MON vort_p_mean                  =  -2.6474611664260E-19
(PID.TID 0000.0001) %MON vort_p_sd                    =   8.4234325351301E-05
(PID.TID 0000.0001) %MON surfExpan_theta_mean         =  -4.5917928878302E+00
(PID.TID 0000.0001) %MON surfExpan_salt_mean          =  -4.4519740003553E-04
(PID.TID 0000.0001) %MON surfExpan_Heat_mean          =  -4.0710767535683E+02
(PID.TID 0000.0001) %MON En_Budget_T2PE_mean          =   5.5077246333340E+01
(PID.TID 0000.0001) // =======================================================
(PID.TID 0000.0001) // End MONITOR dynamic field statistics
(PID.TID 0000.0001) // =======================================================
 cg2d: Sum(rhs),rhsMax =  -1.30385160446167E-08  2.36887332803370E+04
(PID.TID 0000.0001)      cg2d_init_res =   6.48891658066884E+04
(PID.TID 0000.0001)      cg2d_iters(min,last) =      -1      14
(PID.TID 0000.0001)      cg2d_last_res =   8.68997542619068E-12
(PID.TID 0000.0001) // =======================================================
(PID.TID 0000.0001) // Begin MONITOR dynamic field statistics
(PID.TID 0000.0001) // =======================================================
(PID.TID 0000.0001) %MON time_tsnumber                =                    24
(PID.TID 0000.0001) %MON time_secondsf                =   8.6400000000000E+03
(PID.TID 0000.0001) %MON dynstat_eta_max              =   2.9671185564355E+03
(PID.TID 0000.0001) %MON dynstat_eta_min              =  -2.2442702991384E+03
(PID.TID 0000.0001) %MON dynstat_eta_mean             =  -4.2845394688523E-14
(PID.TID 0000.0001) %MON dynstat_eta_sd               =   1.7896944078613E+03
(PID.TID 0000.0001) %MON dynstat_eta_del2             =   6.5089596420827E-01
(PID.TID 0000.0001) %MON dynstat_uvel_max             =   2.7207444835915E+01
(PID.TID 0000.0001) %MON dynstat_uvel_min             =  -2.7205746312191E+01
(PID.TID 0000.0001) %MON dynstat_uvel_mean            =   7.7540156882810E-01
(PID.TID 0000.0001) %MON dynstat_uvel_sd              =   8.5080673888209E+00
(PID.TID 0000.0001) %MON dynstat_uvel_del2            =   1.6662941083238E-03
(PID.TID 0000.0001) %MON dynstat_vvel_max             =   2.7196037253996E+01
(PID.TID 0000.0001) %MON dynstat_vvel_min             =  -2.7190588850549E+01
(PID.TID 0000.0001) %MON dynstat_vvel_mean            =   7.7823692894665E-01
(PID.TID 0000.0001) %MON dynstat_vvel_sd              =   8.5081166437248E+00
(PID.TID 0000.0001) %MON dynstat_vvel_del2            =   1.6673602083391E-03
(PID.TID 0000.0001) %MON dynstat_wvel_max             =   2.7498204802120E-01
(PID.TID 0000.0001) %MON dynstat_wvel_min             =  -2.9531639515234E-01
(PID.TID 0000.0001) %MON dynstat_wvel_mean            =   3.4468267266889E-16
(PID.TID 0000.0001) %MON dynstat_wvel_sd              =   8.5397831600254E-02
(PID.TID 0000.0001) %MON dynstat_wvel_del2            =   8.8069938758676E-05
(PID.TID 0000.0001) %MON dynstat_theta_max            =   1.1566761547964E+03
(PID.TID 0000.0001) %MON dynstat_theta_min            =   2.5759174867743E+02
(PID.TID 0000.0001) %MON dynstat_theta_mean           =   3.2790138632940E+02
(PID.TID 0000.0001) %MON dynstat_theta_sd             =   9.0380976502031E+01
(PID.TID 0000.0001) %MON dynstat_theta_del2           =   6.5031396736554E-04
(PID.TID 0000.0001) %MON dynstat_salt_max             =   2.0321209991575E-02
(PID.TID 0000.0001) %MON dynstat_salt_min             =   0.0000000000000E+00
(PID.TID 0000.0001) %MON dynstat_salt_mean            =   1.8754164016376E-03
(PID.TID 0000.0001) %MON dynstat_salt_sd              =   3.8641729643257E-03
(PID.TID 0000.0001) %MON dynstat_salt_del2            =   9.4894160603196E-07
(PID.TID 0000.0001) %MON advcfl_uvel_max              =   8.2565506458697E-02
(PID.TID 0000.0001) %MON advcfl_vvel_max              =   8.2532447415905E-02
(PID.TID 0000.0001) %MON advcfl_wvel_max              =   1.1382644781032E-02
(PID.TID 0000.0001) %MON advcfl_W_hf_max              =   1.2137705697104E-02
(PID.TID 0000.0001) %MON am_eta_mean                  =  -1.4812815502865E+11
(PID.TID 0000.0001) %MON am_uZo_mean                  =   1.4789158883166E+11
(PID.TID 0000.0001) %MON am_tot_mean                  =  -2.3656619698471E+08
(PID.TID 0000.0001) %MON pe_b_mean                    =   1.3565612188671E+01
(PID.TID 0000.0001) %MON ke_max                       =   3.7431933440680E+02
(PID.TID 0000.0001) %MON ke_mean                      =   7.2991079913540E+01
(PID.TID 0000.0001) %MON ke_vol                       =   5.0986421042785E+19
(PID.TID 0000.0001) %MON vort_r_min                   =  -8.4252429200534E-06
(PID.TID 0000.0001) %MON vort_r_max                   =   8.4251041172155E-06
(PID.TID 0000.0001) %MON vort_a_mean                  =   4.9027103475703E-21
(PID.TID 0000.0001) %MON vort_a_sd                    =   8.4866619390937E-05
(PID.TID 0000.0001) %MON vort_p_mean                  =   4.9027055143611E-21
(PID.TID 0000.0001) %MON vort_p_sd                    =   8.4235879423794E-05
(PID.TID 0000.0001) %MON surfExpan_theta_mean         =  -4.6508090333748E+00
(PID.TID 0000.0001) %MON surfExpan_salt_mean          =  -4.5295921902100E-04
(PID.TID 0000.0001) %MON surfExpan_Heat_mean          =  -4.1271347944426E+02
(PID.TID 0000.0001) %MON En_Budget_T2PE_mean          =   5.6653573766316E+01
(PID.TID 0000.0001) // =======================================================
(PID.TID 0000.0001) // End MONITOR dynamic field statistics
(PID.TID 0000.0001) // =======================================================
(PID.TID 0000.0001)   Exporting atmospheric fluxes at iter.        24
(PID.TID 0000.0001)   Importing oceanic fields at iteration        24
 cg2d: Sum(rhs),rhsMax =   2.42143869400024E-08  2.52756516274790E+04
(PID.TID 0000.0001)      cg2d_init_res =   6.57569087073987E+04
(PID.TID 0000.0001)      cg2d_iters(min,last) =      -1      14
(PID.TID 0000.0001)      cg2d_last_res =   9.26216472636811E-12
(PID.TID 0000.0001) // =======================================================
(PID.TID 0000.0001) // Begin MONITOR dynamic field statistics
(PID.TID 0000.0001) // =======================================================
(PID.TID 0000.0001) %MON time_tsnumber                =                    25
(PID.TID 0000.0001) %MON time_secondsf                =   9.0000000000000E+03
(PID.TID 0000.0001) %MON dynstat_eta_max              =   3.1719536323600E+03
(PID.TID 0000.0001) %MON dynstat_eta_min              =  -2.3994695898028E+03
(PID.TID 0000.0001) %MON dynstat_eta_mean             =   1.0282894725246E-12
(PID.TID 0000.0001) %MON dynstat_eta_sd               =   1.9139458928503E+03
(PID.TID 0000.0001) %MON dynstat_eta_del2             =   6.7110107130017E-01
(PID.TID 0000.0001) %MON dynstat_uvel_max             =   2.8108150971054E+01
(PID.TID 0000.0001) %MON dynstat_uvel_min             =  -2.8106511054833E+01
(PID.TID 0000.0001) %MON dynstat_uvel_mean            =   8.2962130513219E-01
(PID.TID 0000.0001) %MON dynstat_uvel_sd              =   8.7495086678321E+00
(PID.TID 0000.0001) %MON dynstat_uvel_del2            =   1.7079606835167E-03
(PID.TID 0000.0001) %MON dynstat_vvel_max             =   2.8096605947557E+01
(PID.TID 0000.0001) %MON dynstat_vvel_min             =  -2.8090008412516E+01
(PID.TID 0000.0001) %MON dynstat_vvel_mean            =   8.3268352053582E-01
(PID.TID 0000.0001) %MON dynstat_vvel_sd              =   8.7495100881689E+00
(PID.TID 0000.0001) %MON dynstat_vvel_del2            =   1.7090526182449E-03
(PID.TID 0000.0001) %MON dynstat_wvel_max             =   2.8346173780180E-01
(PID.TID 0000.0001) %MON dynstat_wvel_min             =  -2.9772801219113E-01
(PID.TID 0000.0001) %MON dynstat_wvel_mean            =   1.0566914052623E-16
(PID.TID 0000.0001) %MON dynstat_wvel_sd              =   8.8086633724211E-02
(PID.TID 0000.0001) %MON dynstat_wvel_del2            =   8.9974575706407E-05
(PID.TID 0000.0001) %MON dynstat_theta_max            =   1.1569344213737E+03
(PID.TID 0000.0001) %MON dynstat_theta_min            =   2.5768131748492E+02
(PID.TID 0000.0001) %MON dynstat_theta_mean           =   3.2790131126261E+02
(PID.TID 0000.0001) %MON dynstat_theta_sd             =   9.0382726354456E+01
(PID.TID 0000.0001) %MON dynstat_theta_del2           =   6.5481802579131E-04
(PID.TID 0000.0001) %MON dynstat_salt_max             =   2.0321475188802E-02
(PID.TID 0000.0001) %MON dynstat_salt_min             =   0.0000000000000E+00
(PID.TID 0000.0001) %MON dynstat_salt_mean            =   1.8786247293963E-03
(PID.TID 0000.0001) %MON dynstat_salt_sd              =   3.8675924224900E-03
(PID.TID 0000.0001) %MON dynstat_salt_del2            =   9.6815478584901E-07
(PID.TID 0000.0001) %MON advcfl_uvel_max              =   8.5262354436190E-02
(PID.TID 0000.0001) %MON advcfl_vvel_max              =   8.5228838996517E-02
(PID.TID 0000.0001) %MON advcfl_wvel_max              =   1.1475597900301E-02
(PID.TID 0000.0001) %MON advcfl_W_hf_max              =   1.2374165077915E-02
(PID.TID 0000.0001) %MON am_eta_mean                  =  -1.5901786150040E+11
(PID.TID 0000.0001) %MON am_uZo_mean                  =   1.5875283418787E+11
(PID.TID 0000.0001) %MON am_tot_mean                  =  -2.6502731253589E+08
(PID.TID 0000.0001) %MON pe_b_mean                    =   1.5514613019593E+01
(PID.TID 0000.0001) %MON ke_max                       =   3.9806838149545E+02
(PID.TID 0000.0001) %MON ke_mean                      =   7.7244731033696E+01
(PID.TID 0000.0001) %MON ke_vol                       =   5.0986421042785E+19
(PID.TID 0000.0001) %MON vort_r_min                   =  -8.9717127779097E-06
(PID.TID 0000.0001) %MON vort_r_max                   =   8.9712750789285E-06
(PID.TID 0000.0001) %MON vort_a_mean                  =  -4.6575748301918E-20
(PID.TID 0000.0001) %MON vort_a_sd                    =   8.4915381908774E-05
(PID.TID 0000.0001) %MON vort_p_mean                  =  -4.1672993853256E-20
(PID.TID 0000.0001) %MON vort_p_sd                    =   8.4237478321660E-05
(PID.TID 0000.0001) %MON surfExpan_theta_mean         =  -4.6955699880228E+00
(PID.TID 0000.0001) %MON surfExpan_salt_mean          =  -4.5948642792304E-04
(PID.TID 0000.0001) %MON surfExpan_Heat_mean          =  -4.1707386157640E+02
(PID.TID 0000.0001) %MON En_Budget_T2PE_mean          =   5.8142513497728E+01
(PID.TID 0000.0001) // =======================================================
(PID.TID 0000.0001) // End MONITOR dynamic field statistics
(PID.TID 0000.0001) // =======================================================
 cg2d: Sum(rhs),rhsMax =  -3.35276126861572E-08  2.68848814857163E+04
(PID.TID 0000.0001)      cg2d_init_res =   6.64359632916493E+04
(PID.TID 0000.0001)      cg2d_iters(min,last) =      -1      14
(PID.TID 0000.0001)      cg2d_last_res =   9.87283297176415E-12
(PID.TID 0000.0001) // =======================================================
(PID.TID 0000.0001) // Begin MONITOR dynamic field statistics
(PID.TID 0000.0001) // =======================================================
(PID.TID 0000.0001) %MON time_tsnumber                =                    26
(PID.TID 0000.0001) %MON time_secondsf                =   9.3600000000000E+03
(PID.TID 0000.0001) %MON dynstat_eta_max              =   3.3783295857885E+03
(PID.TID 0000.0001) %MON dynstat_eta_min              =  -2.5561940420413E+03
(PID.TID 0000.0001) %MON dynstat_eta_mean             =  -1.7138157875409E-13
(PID.TID 0000.0001) %MON dynstat_eta_sd               =   2.0394834565195E+03
(PID.TID 0000.0001) %MON dynstat_eta_del2             =   6.9080271440567E-01
(PID.TID 0000.0001) %MON dynstat_uvel_max             =   2.8974219730522E+01
(PID.TID 0000.0001) %MON dynstat_uvel_min             =  -2.8972701208268E+01
(PID.TID 0000.0001) %MON dynstat_uvel_mean            =   8.8434153055586E-01
(PID.TID 0000.0001) %MON dynstat_uvel_sd              =   8.9802660779975E+00
(PID.TID 0000.0001) %MON dynstat_uvel_del2            =   1.7472852137975E-03
(PID.TID 0000.0001) %MON dynstat_vvel_max             =   2.8962589933308E+01
(PID.TID 0000.0001) %MON dynstat_vvel_min             =  -2.8954883188889E+01
(PID.TID 0000.0001) %MON dynstat_vvel_mean            =   8.8763962913057E-01
(PID.TID 0000.0001) %MON dynstat_vvel_sd              =   8.9802105038641E+00
(PID.TID 0000.0001) %MON dynstat_vvel_del2            =   1.7483828020772E-03
(PID.TID 0000.0001) %MON dynstat_wvel_max             =   2.9125201542400E-01
(PID.TID 0000.0001) %MON dynstat_wvel_min             =  -2.9913061108770E-01
(PID.TID 0000.0001) %MON dynstat_wvel_mean            =   6.7930161766862E-17
(PID.TID 0000.0001) %MON dynstat_wvel_sd              =   9.0685153789162E-02
(PID.TID 0000.0001) %MON dynstat_wvel_del2            =   9.1715792844051E-05
(PID.TID 0000.0001) %MON dynstat_theta_max            =   1.1571799693842E+03
(PID.TID 0000.0001) %MON dynstat_theta_min            =   2.5776920357839E+02
(PID.TID 0000.0001) %MON dynstat_theta_mean           =   3.2790110891841E+02
(PID.TID 0000.0001) %MON dynstat_theta_sd             =   9.0384592028555E+01
(PID.TID 0000.0001) %MON dynstat_theta_del2           =   6.6296168453027E-04
(PID.TID 0000.0001) %MON dynstat_salt_max             =   2.0321742263659E-02
(PID.TID 0000.0001) %MON dynstat_salt_min             =   0.0000000000000E+00
(PID.TID 0000.0001) %MON dynstat_salt_mean            =   1.8818924647152E-03
(PID.TID 0000.0001) %MON dynstat_salt_sd              =   3.8711797494001E-03
(PID.TID 0000.0001) %MON dynstat_salt_del2            =   9.8526743078714E-07
(PID.TID 0000.0001) %MON advcfl_uvel_max              =   8.7847575915242E-02
(PID.TID 0000.0001) %MON advcfl_vvel_max              =   8.7813735303408E-02
(PID.TID 0000.0001) %MON advcfl_wvel_max              =   1.1529659528005E-02
(PID.TID 0000.0001) %MON advcfl_W_hf_max              =   1.2567532565619E-02
(PID.TID 0000.0001) %MON am_eta_mean                  =  -1.7005152196687E+11
(PID.TID 0000.0001) %MON am_uZo_mean                  =   1.6975647078390E+11
(PID.TID 0000.0001) %MON am_tot_mean                  =  -2.9505118297708E+08
(PID.TID 0000.0001) %MON pe_b_mean                    =   1.7616596570890E+01
(PID.TID 0000.0001) %MON ke_max                       =   4.2170455195684E+02
(PID.TID 0000.0001) %MON ke_mean                      =   8.1429661789945E+01
(PID.TID 0000.0001) %MON ke_vol                       =   5.0986421042785E+19
(PID.TID 0000.0001) %MON vort_r_min                   =  -9.5204074642274E-06
(PID.TID 0000.0001) %MON vort_r_max                   =   9.5196611765982E-06
(PID.TID 0000.0001) %MON vort_a_mean                  =  -1.4217860007954E-19
(PID.TID 0000.0001) %MON vort_a_sd                    =   8.4964923248512E-05
(PID.TID 0000.0001) %MON vort_p_mean                  =  -1.4217843915343E-19
(PID.TID 0000.0001) %MON vort_p_sd                    =   8.4239126902293E-05
(PID.TID 0000.0001) %MON surfExpan_theta_mean         =  -4.7260588278311E+00
(PID.TID 0000.0001) %MON surfExpan_salt_mean          =  -4.6476169631293E-04
(PID.TID 0000.0001) %MON surfExpan_Heat_mean          =  -4.2018355306748E+02
(PID.TID 0000.0001) %MON En_Budget_T2PE_mean          =   5.9542836508175E+01
(PID.TID 0000.0001) // =======================================================
(PID.TID 0000.0001) // End MONITOR dynamic field statistics
(PID.TID 0000.0001) // =======================================================
 cg2d: Sum(rhs),rhsMax =  -1.86264514923096E-08  2.85166698758491E+04
(PID.TID 0000.0001)      cg2d_init_res =   6.69247305768590E+04
(PID.TID 0000.0001)      cg2d_iters(min,last) =      -1      14
(PID.TID 0000.0001)      cg2d_last_res =   1.05137314373152E-11
(PID.TID 0000.0001) // =======================================================
(PID.TID 0000.0001) // Begin MONITOR dynamic field statistics
(PID.TID 0000.0001) // =======================================================
(PID.TID 0000.0001) %MON time_tsnumber                =                    27
(PID.TID 0000.0001) %MON time_secondsf                =   9.7200000000000E+03
(PID.TID 0000.0001) %MON dynstat_eta_max              =   3.5855902404076E+03
(PID.TID 0000.0001) %MON dynstat_eta_min              =  -2.7140504171913E+03
(PID.TID 0000.0001) %MON dynstat_eta_mean             =   0.0000000000000E+00
(PID.TID 0000.0001) %MON dynstat_eta_sd               =   2.1659476441246E+03
(PID.TID 0000.0001) %MON dynstat_eta_del2             =   7.1002593616554E-01
(PID.TID 0000.0001) %MON dynstat_uvel_max             =   2.9804181801738E+01
(PID.TID 0000.0001) %MON dynstat_uvel_min             =  -2.9802837300971E+01
(PID.TID 0000.0001) %MON dynstat_uvel_mean            =   9.3940224833948E-01
(PID.TID 0000.0001) %MON dynstat_uvel_sd              =   9.2004138403340E+00
(PID.TID 0000.0001) %MON dynstat_uvel_del2            =   1.7843346305133E-03
(PID.TID 0000.0001) %MON dynstat_vvel_max             =   2.9792504190762E+01
(PID.TID 0000.0001) %MON dynstat_vvel_min             =  -2.9783728719896E+01
(PID.TID 0000.0001) %MON dynstat_vvel_mean            =   9.4294565651721E-01
(PID.TID 0000.0001) %MON dynstat_vvel_sd              =   9.2002915075708E+00
(PID.TID 0000.0001) %MON dynstat_vvel_del2            =   1.7854118340141E-03
(PID.TID 0000.0001) %MON dynstat_wvel_max             =   2.9833684217225E-01
(PID.TID 0000.0001) %MON dynstat_wvel_min             =  -2.9957792889784E-01
(PID.TID 0000.0001) %MON dynstat_wvel_mean            =  -2.1888607680433E-16
(PID.TID 0000.0001) %MON dynstat_wvel_sd              =   9.3192129813721E-02
(PID.TID 0000.0001) %MON dynstat_wvel_del2            =   9.3299911341754E-05
(PID.TID 0000.0001) %MON dynstat_theta_max            =   1.1574077288018E+03
(PID.TID 0000.0001) %MON dynstat_theta_min            =   2.5785559608532E+02
(PID.TID 0000.0001) %MON dynstat_theta_mean           =   3.2790078211786E+02
(PID.TID 0000.0001) %MON dynstat_theta_sd             =   9.0386567382409E+01
(PID.TID 0000.0001) %MON dynstat_theta_del2           =   6.7399424288195E-04
(PID.TID 0000.0001) %MON dynstat_salt_max             =   2.0322011415394E-02
(PID.TID 0000.0001) %MON dynstat_salt_min             =   0.0000000000000E+00
(PID.TID 0000.0001) %MON dynstat_salt_mean            =   1.8852314626553E-03
(PID.TID 0000.0001) %MON dynstat_salt_sd              =   3.8749631741987E-03
(PID.TID 0000.0001) %MON dynstat_salt_del2            =   1.0004830884435E-06
(PID.TID 0000.0001) %MON advcfl_uvel_max              =   9.0316858375715E-02
(PID.TID 0000.0001) %MON advcfl_vvel_max              =   9.0282773680580E-02
(PID.TID 0000.0001) %MON advcfl_wvel_max              =   1.1588304651904E-02
(PID.TID 0000.0001) %MON advcfl_W_hf_max              =   1.2732621214121E-02
(PID.TID 0000.0001) %MON am_eta_mean                  =  -1.8119700828075E+11
(PID.TID 0000.0001) %MON am_uZo_mean                  =   1.8087045182233E+11
(PID.TID 0000.0001) %MON am_tot_mean                  =  -3.2655645842688E+08
(PID.TID 0000.0001) %MON pe_b_mean                    =   1.9869070203466E+01
(PID.TID 0000.0001) %MON ke_max                       =   4.4514517269671E+02
(PID.TID 0000.0001) %MON ke_mean                      =   8.5532300876852E+01
(PID.TID 0000.0001) %MON ke_vol                       =   5.0986421042785E+19
(PID.TID 0000.0001) %MON vort_r_min                   =  -1.0069458475612E-05
(PID.TID 0000.0001) %MON vort_r_max                   =   1.0068390836515E-05
(PID.TID 0000.0001) %MON vort_a_mean                  =   0.0000000000000E+00
(PID.TID 0000.0001) %MON vort_a_sd                    =   8.5015111771817E-05
(PID.TID 0000.0001) %MON vort_p_mean                  =   0.0000000000000E+00
(PID.TID 0000.0001) %MON vort_p_sd                    =   8.4240830425643E-05
(PID.TID 0000.0001) %MON surfExpan_theta_mean         =  -4.7423054271067E+00
(PID.TID 0000.0001) %MON surfExpan_salt_mean          =  -4.6877351213973E-04
(PID.TID 0000.0001) %MON surfExpan_Heat_mean          =  -4.2204134108089E+02
(PID.TID 0000.0001) %MON En_Budget_T2PE_mean          =   6.0853486190351E+01
(PID.TID 0000.0001) // =======================================================
(PID.TID 0000.0001) // End MONITOR dynamic field statistics
(PID.TID 0000.0001) // =======================================================
 cg2d: Sum(rhs),rhsMax =  -3.35276126861572E-08  3.01660883560933E+04
(PID.TID 0000.0001)      cg2d_init_res =   6.72221941264687E+04
(PID.TID 0000.0001)      cg2d_iters(min,last) =      -1      14
(PID.TID 0000.0001)      cg2d_last_res =   1.11822466707988E-11
(PID.TID 0000.0001) // =======================================================
(PID.TID 0000.0001) // Begin MONITOR dynamic field statistics
(PID.TID 0000.0001) // =======================================================
(PID.TID 0000.0001) %MON time_tsnumber                =                    28
(PID.TID 0000.0001) %MON time_secondsf                =   1.0080000000000E+04
(PID.TID 0000.0001) %MON dynstat_eta_max              =   3.7931228584546E+03
(PID.TID 0000.0001) %MON dynstat_eta_min              =  -2.8726614754525E+03
(PID.TID 0000.0001) %MON dynstat_eta_mean             =   5.9983552563933E-13
(PID.TID 0000.0001) %MON dynstat_eta_sd               =   2.2929769989459E+03
(PID.TID 0000.0001) %MON dynstat_eta_del2             =   7.2878035171892E-01
(PID.TID 0000.0001) %MON dynstat_uvel_max             =   3.0596590847518E+01
(PID.TID 0000.0001) %MON dynstat_uvel_min             =  -3.0595462096040E+01
(PID.TID 0000.0001) %MON dynstat_uvel_mean            =   9.9464408995536E-01
(PID.TID 0000.0001) %MON dynstat_uvel_sd              =   9.4100687077445E+00
(PID.TID 0000.0001) %MON dynstat_uvel_del2            =   1.8192198997324E-03
(PID.TID 0000.0001) %MON dynstat_vvel_max             =   3.0584885945204E+01
(PID.TID 0000.0001) %MON dynstat_vvel_min             =  -3.0575079013229E+01
(PID.TID 0000.0001) %MON dynstat_vvel_mean            =   9.9844230768663E-01
(PID.TID 0000.0001) %MON dynstat_vvel_sd              =   9.4098713214664E+00
(PID.TID 0000.0001) %MON dynstat_vvel_del2            =   1.8202556990445E-03
(PID.TID 0000.0001) %MON dynstat_wvel_max             =   3.0470552874257E-01
(PID.TID 0000.0001) %MON dynstat_wvel_min             =  -2.9911760839789E-01
(PID.TID 0000.0001) %MON dynstat_wvel_mean            =   1.0315320860894E-16
(PID.TID 0000.0001) %MON dynstat_wvel_sd              =   9.5606592884712E-02
(PID.TID 0000.0001) %MON dynstat_wvel_del2            =   9.4735973591124E-05
(PID.TID 0000.0001) %MON dynstat_theta_max            =   1.1576161875515E+03
(PID.TID 0000.0001) %MON dynstat_theta_min            =   2.5794053975524E+02
(PID.TID 0000.0001) %MON dynstat_theta_mean           =   3.2790032166681E+02
(PID.TID 0000.0001) %MON dynstat_theta_sd             =   9.0388652927126E+01
(PID.TID 0000.0001) %MON dynstat_theta_del2           =   6.8667131424359E-04
(PID.TID 0000.0001) %MON dynstat_salt_max             =   2.0322282864230E-02
(PID.TID 0000.0001) %MON dynstat_salt_min             =   0.0000000000000E+00
(PID.TID 0000.0001) %MON dynstat_salt_mean            =   1.8886578954688E-03
(PID.TID 0000.0001) %MON dynstat_salt_sd              =   3.8789588239975E-03
(PID.TID 0000.0001) %MON dynstat_salt_del2            =   1.0141163607325E-06
(PID.TID 0000.0001) %MON advcfl_uvel_max              =   9.2666044710982E-02
(PID.TID 0000.0001) %MON advcfl_vvel_max              =   9.2631754391592E-02
(PID.TID 0000.0001) %MON advcfl_wvel_max              =   1.1803984069607E-02
(PID.TID 0000.0001) %MON advcfl_W_hf_max              =   1.2948683244274E-02
(PID.TID 0000.0001) %MON am_eta_mean                  =  -1.9242187648523E+11
(PID.TID 0000.0001) %MON am_uZo_mean                  =   1.9206243392817E+11
(PID.TID 0000.0001) %MON am_tot_mean                  =  -3.5944255705872E+08
(PID.TID 0000.0001) %MON pe_b_mean                    =   2.2267990728454E+01
(PID.TID 0000.0001) %MON ke_max                       =   4.6830996915231E+02
(PID.TID 0000.0001) %MON ke_mean                      =   8.9540637639577E+01
(PID.TID 0000.0001) %MON ke_vol                       =   5.0986421042785E+19
(PID.TID 0000.0001) %MON vort_r_min                   =  -1.0616968255079E-05
(PID.TID 0000.0001) %MON vort_r_max                   =   1.0615565542603E-05
(PID.TID 0000.0001) %MON vort_a_mean                  =   2.4513551737851E-20
(PID.TID 0000.0001) %MON vort_a_sd                    =   8.5065813097429E-05
(PID.TID 0000.0001) %MON vort_p_mean                  =   2.6964872322770E-20
(PID.TID 0000.0001) %MON vort_p_sd                    =   8.4242594130069E-05
(PID.TID 0000.0001) %MON surfExpan_theta_mean         =  -4.7443888983623E+00
(PID.TID 0000.0001) %MON surfExpan_salt_mean          =  -4.7151125450788E-04
(PID.TID 0000.0001) %MON surfExpan_Heat_mean          =  -4.2265022323176E+02
(PID.TID 0000.0001) %MON En_Budget_T2PE_mean          =   6.2073654414113E+01
(PID.TID 0000.0001) // =======================================================
(PID.TID 0000.0001) // End MONITOR dynamic field statistics
(PID.TID 0000.0001) // =======================================================
 cg2d: Sum(rhs),rhsMax =   1.86264514923096E-08  3.18212314732634E+04
(PID.TID 0000.0001)      cg2d_init_res =   6.73279381897724E+04
(PID.TID 0000.0001)      cg2d_iters(min,last) =      -1      14
(PID.TID 0000.0001)      cg2d_last_res =   1.18799059930184E-11
(PID.TID 0000.0001) // =======================================================
(PID.TID 0000.0001) // Begin MONITOR dynamic field statistics
(PID.TID 0000.0001) // =======================================================
(PID.TID 0000.0001) %MON time_tsnumber                =                    29
(PID.TID 0000.0001) %MON time_secondsf                =   1.0440000000000E+04
(PID.TID 0000.0001) %MON dynstat_eta_max              =   4.0003528489309E+03
(PID.TID 0000.0001) %MON dynstat_eta_min              =  -3.0316638702583E+03
(PID.TID 0000.0001) %MON dynstat_eta_mean             =  -1.7138157875409E-13
(PID.TID 0000.0001) %MON dynstat_eta_sd               =   2.4202090929947E+03
(PID.TID 0000.0001) %MON dynstat_eta_del2             =   7.4706777498838E-01
(PID.TID 0000.0001) %MON dynstat_uvel_max             =   3.1350056341371E+01
(PID.TID 0000.0001) %MON dynstat_uvel_min             =  -3.1349173444405E+01
(PID.TID 0000.0001) %MON dynstat_uvel_mean            =   1.0499089287749E+00
(PID.TID 0000.0001) %MON dynstat_uvel_sd              =   9.6093813435689E+00
(PID.TID 0000.0001) %MON dynstat_uvel_del2            =   1.8520915592253E-03
(PID.TID 0000.0001) %MON dynstat_vvel_max             =   3.1338328933355E+01
(PID.TID 0000.0001) %MON dynstat_vvel_min             =  -3.1327517433559E+01
(PID.TID 0000.0001) %MON dynstat_vvel_mean            =   1.0539710696251E+00
(PID.TID 0000.0001) %MON dynstat_vvel_sd              =   9.6091025353956E+00
(PID.TID 0000.0001) %MON dynstat_vvel_del2            =   1.8530542545370E-03
(PID.TID 0000.0001) %MON dynstat_wvel_max             =   3.1035642078024E-01
(PID.TID 0000.0001) %MON dynstat_wvel_min             =  -2.9780373620798E-01
(PID.TID 0000.0001) %MON dynstat_wvel_mean            =  -2.7675251090203E-17
(PID.TID 0000.0001) %MON dynstat_wvel_sd              =   9.7928044034795E-02
(PID.TID 0000.0001) %MON dynstat_wvel_del2            =   9.6034696821101E-05
(PID.TID 0000.0001) %MON dynstat_theta_max            =   1.1578317151631E+03
(PID.TID 0000.0001) %MON dynstat_theta_min            =   2.5802406940553E+02
(PID.TID 0000.0001) %MON dynstat_theta_mean           =   3.2789972560437E+02
(PID.TID 0000.0001) %MON dynstat_theta_sd             =   9.0390845044170E+01
(PID.TID 0000.0001) %MON dynstat_theta_del2           =   6.9940807986309E-04
(PID.TID 0000.0001) %MON dynstat_salt_max             =   2.0322556850845E-02
(PID.TID 0000.0001) %MON dynstat_salt_min             =   0.0000000000000E+00
(PID.TID 0000.0001) %MON dynstat_salt_mean            =   1.8921858600199E-03
(PID.TID 0000.0001) %MON dynstat_salt_sd              =   3.8831907641223E-03
(PID.TID 0000.0001) %MON dynstat_salt_del2            =   1.0263756862336E-06
(PID.TID 0000.0001) %MON advcfl_uvel_max              =   9.4891219456960E-02
(PID.TID 0000.0001) %MON advcfl_vvel_max              =   9.4856722386402E-02
(PID.TID 0000.0001) %MON advcfl_wvel_max              =   1.1992583655828E-02
(PID.TID 0000.0001) %MON advcfl_W_hf_max              =   1.3152843112741E-02
(PID.TID 0000.0001) %MON am_eta_mean                  =  -2.0369345844620E+11
(PID.TID 0000.0001) %MON am_uZo_mean                  =   2.0329987135053E+11
(PID.TID 0000.0001) %MON am_tot_mean                  =  -3.9358709566833E+08
(PID.TID 0000.0001) %MON pe_b_mean                    =   2.4807752007700E+01
(PID.TID 0000.0001) %MON ke_max                       =   4.9112205286138E+02
(PID.TID 0000.0001) %MON ke_mean                      =   9.3444112558407E+01
(PID.TID 0000.0001) %MON ke_vol                       =   5.0986421042784E+19
(PID.TID 0000.0001) %MON vort_r_min                   =  -1.1161025549233E-05
(PID.TID 0000.0001) %MON vort_r_max                   =   1.1159268823710E-05
(PID.TID 0000.0001) %MON vort_a_mean                  =   1.0540827247276E-19
(PID.TID 0000.0001) %MON vort_a_sd                    =   8.5116888983700E-05
(PID.TID 0000.0001) %MON vort_p_mean                  =   1.0540812908970E-19
(PID.TID 0000.0001) %MON vort_p_sd                    =   8.4244421793908E-05
(PID.TID 0000.0001) %MON surfExpan_theta_mean         =  -4.7324289012392E+00
(PID.TID 0000.0001) %MON surfExpan_salt_mean          =  -4.7296804631180E-04
(PID.TID 0000.0001) %MON surfExpan_Heat_mean          =  -4.2201670045195E+02
(PID.TID 0000.0001) %MON En_Budget_T2PE_mean          =   6.3202591857616E+01
(PID.TID 0000.0001) // =======================================================
(PID.TID 0000.0001) // End MONITOR dynamic field statistics
(PID.TID 0000.0001) // =======================================================
 cg2d: Sum(rhs),rhsMax =  -3.72529029846191E-09  3.34762006507118E+04
(PID.TID 0000.0001)      cg2d_init_res =   6.72421155061294E+04
(PID.TID 0000.0001)      cg2d_iters(min,last) =      -1      14
(PID.TID 0000.0001)      cg2d_last_res =   1.26028843076416E-11
(PID.TID 0000.0001) // =======================================================
(PID.TID 0000.0001) // Begin MONITOR dynamic field statistics
(PID.TID 0000.0001) // =======================================================
(PID.TID 0000.0001) %MON time_tsnumber                =                    30
(PID.TID 0000.0001) %MON time_secondsf                =   1.0800000000000E+04
(PID.TID 0000.0001) %MON dynstat_eta_max              =   4.2068797701585E+03
(PID.TID 0000.0001) %MON dynstat_eta_min              =  -3.1907046813055E+03
(PID.TID 0000.0001) %MON dynstat_eta_mean             =   0.0000000000000E+00
(PID.TID 0000.0001) %MON dynstat_eta_sd               =   2.5472815717873E+03
(PID.TID 0000.0001) %MON dynstat_eta_del2             =   7.6486709081576E-01
(PID.TID 0000.0001) %MON dynstat_uvel_max             =   3.2063273555458E+01
(PID.TID 0000.0001) %MON dynstat_uvel_min             =  -3.2062658664674E+01
(PID.TID 0000.0001) %MON dynstat_uvel_mean            =   1.1050403237768E+00
(PID.TID 0000.0001) %MON dynstat_uvel_sd              =   9.7985507845654E+00
(PID.TID 0000.0001) %MON dynstat_uvel_del2            =   1.8831177690145E-03
(PID.TID 0000.0001) %MON dynstat_vvel_max             =   3.2051518834072E+01
(PID.TID 0000.0001) %MON dynstat_vvel_min             =  -3.2039710811357E+01
(PID.TID 0000.0001) %MON dynstat_vvel_mean            =   1.1093746803858E+00
(PID.TID 0000.0001) %MON dynstat_vvel_sd              =   9.7981857920103E+00
(PID.TID 0000.0001) %MON dynstat_vvel_del2            =   1.8839836389847E-03
(PID.TID 0000.0001) %MON dynstat_wvel_max             =   3.1535104150506E-01
(PID.TID 0000.0001) %MON dynstat_wvel_min             =  -2.9675109396596E-01
(PID.TID 0000.0001) %MON dynstat_wvel_mean            =  -1.9624268954871E-16
(PID.TID 0000.0001) %MON dynstat_wvel_sd              =   1.0015598526758E-01
(PID.TID 0000.0001) %MON dynstat_wvel_del2            =   9.7207553798820E-05
(PID.TID 0000.0001) %MON dynstat_theta_max            =   1.1580218426119E+03
(PID.TID 0000.0001) %MON dynstat_theta_min            =   2.5810622101069E+02
(PID.TID 0000.0001) %MON dynstat_theta_mean           =   3.2789899216629E+02
(PID.TID 0000.0001) %MON dynstat_theta_sd             =   9.0393139921240E+01
(PID.TID 0000.0001) %MON dynstat_theta_del2           =   7.1080166357429E-04
(PID.TID 0000.0001) %MON dynstat_salt_max             =   2.0322833635976E-02
(PID.TID 0000.0001) %MON dynstat_salt_min             =   0.0000000000000E+00
(PID.TID 0000.0001) %MON dynstat_salt_mean            =   1.8958289429073E-03
(PID.TID 0000.0001) %MON dynstat_salt_sd              =   3.8876778435161E-03
(PID.TID 0000.0001) %MON dynstat_salt_del2            =   1.0383272184304E-06
(PID.TID 0000.0001) %MON advcfl_uvel_max              =   9.6988786636180E-02
(PID.TID 0000.0001) %MON advcfl_vvel_max              =   9.6954052498124E-02
(PID.TID 0000.0001) %MON advcfl_wvel_max              =   1.2158524084572E-02
(PID.TID 0000.0001) %MON advcfl_W_hf_max              =   1.3473004312155E-02
(PID.TID 0000.0001) %MON am_eta_mean                  =  -2.1497895540896E+11
(PID.TID 0000.0001) %MON am_uZo_mean                  =   2.1455011130319E+11
(PID.TID 0000.0001) %MON am_tot_mean                  =  -4.2884410577277E+08
(PID.TID 0000.0001) %MON pe_b_mean                    =   2.7481190498937E+01
(PID.TID 0000.0001) %MON ke_max                       =   5.1350897232792E+02
(PID.TID 0000.0001) %MON ke_mean                      =   9.7233934295811E+01
(PID.TID 0000.0001) %MON ke_vol                       =   5.0986421042785E+19
(PID.TID 0000.0001) %MON vort_r_min                   =  -1.1699719299895E-05
(PID.TID 0000.0001) %MON vort_r_max                   =   1.1697583478702E-05
(PID.TID 0000.0001) %MON vort_a_mean                  =   5.6381168997058E-20
(PID.TID 0000.0001) %MON vort_a_sd                    =   8.5168200687310E-05
(PID.TID 0000.0001) %MON vort_p_mean                  =   5.6381087841427E-20
(PID.TID 0000.0001) %MON vort_p_sd                    =   8.4246318616951E-05
(PID.TID 0000.0001) %MON surfExpan_theta_mean         =  -4.7065878529861E+00
(PID.TID 0000.0001) %MON surfExpan_salt_mean          =  -4.7313996325252E-04
(PID.TID 0000.0001) %MON surfExpan_Heat_mean          =  -4.2015094798931E+02
(PID.TID 0000.0001) %MON En_Budget_T2PE_mean          =   6.4239771085298E+01
(PID.TID 0000.0001) // =======================================================
(PID.TID 0000.0001) // End MONITOR dynamic field statistics
(PID.TID 0000.0001) // =======================================================
 cg2d: Sum(rhs),rhsMax =   7.07805156707764E-08  3.51248112284741E+04
(PID.TID 0000.0001)      cg2d_init_res =   6.69655049794512E+04
(PID.TID 0000.0001)      cg2d_iters(min,last) =      -1      14
(PID.TID 0000.0001)      cg2d_last_res =   1.33473381905284E-11
(PID.TID 0000.0001) // =======================================================
(PID.TID 0000.0001) // Begin MONITOR dynamic field statistics
(PID.TID 0000.0001) // =======================================================
(PID.TID 0000.0001) %MON time_tsnumber                =                    31
(PID.TID 0000.0001) %MON time_secondsf                =   1.1160000000000E+04
(PID.TID 0000.0001) %MON dynstat_eta_max              =   4.4122679323014E+03
(PID.TID 0000.0001) %MON dynstat_eta_min              =  -3.3494371763089E+03
(PID.TID 0000.0001) %MON dynstat_eta_mean             =   5.1414473626228E-13
(PID.TID 0000.0001) %MON dynstat_eta_sd               =   2.6738332097316E+03
(PID.TID 0000.0001) %MON dynstat_eta_del2             =   7.8212406046378E-01
(PID.TID 0000.0001) %MON dynstat_uvel_max             =   3.2735056400745E+01
(PID.TID 0000.0001) %MON dynstat_uvel_min             =  -3.2734724140936E+01
(PID.TID 0000.0001) %MON dynstat_uvel_mean            =   1.1598839320757E+00
(PID.TID 0000.0001) %MON dynstat_uvel_sd              =   9.9778096587138E+00
(PID.TID 0000.0001) %MON dynstat_uvel_del2            =   1.9124510888143E-03
(PID.TID 0000.0001) %MON dynstat_vvel_max             =   3.2723259720003E+01
(PID.TID 0000.0001) %MON dynstat_vvel_min             =  -3.2710434349300E+01
(PID.TID 0000.0001) %MON dynstat_vvel_mean            =   1.1644975990927E+00
(PID.TID 0000.0001) %MON dynstat_vvel_sd              =   9.9773538962887E+00
(PID.TID 0000.0001) %MON dynstat_vvel_del2            =   1.9131797625917E-03
(PID.TID 0000.0001) %MON dynstat_wvel_max             =   3.1977385985833E-01
(PID.TID 0000.0001) %MON dynstat_wvel_min             =  -2.9516422768269E-01
(PID.TID 0000.0001) %MON dynstat_wvel_mean            =  -7.0446093684153E-17
(PID.TID 0000.0001) %MON dynstat_wvel_sd              =   1.0229035828450E-01
(PID.TID 0000.0001) %MON dynstat_wvel_del2            =   9.8265742315750E-05
(PID.TID 0000.0001) %MON dynstat_theta_max            =   1.1581843732625E+03
(PID.TID 0000.0001) %MON dynstat_theta_min            =   2.5818703838522E+02
(PID.TID 0000.0001) %MON dynstat_theta_mean           =   3.2789812697248E+02
(PID.TID 0000.0001) %MON dynstat_theta_sd             =   9.0395529531845E+01
(PID.TID 0000.0001) %MON dynstat_theta_del2           =   7.1975974470904E-04
(PID.TID 0000.0001) %MON dynstat_salt_max             =   2.0557536499917E-02
(PID.TID 0000.0001) %MON dynstat_salt_min             =   0.0000000000000E+00
(PID.TID 0000.0001) %MON dynstat_salt_mean            =   1.8995973925651E-03
(PID.TID 0000.0001) %MON dynstat_salt_sd              =   3.8924349364761E-03
(PID.TID 0000.0001) %MON dynstat_salt_del2            =   1.0502528101191E-06
(PID.TID 0000.0001) %MON advcfl_uvel_max              =   9.8955559616330E-02
(PID.TID 0000.0001) %MON advcfl_vvel_max              =   9.8920533866571E-02
(PID.TID 0000.0001) %MON advcfl_wvel_max              =   1.2325330786831E-02
(PID.TID 0000.0001) %MON advcfl_W_hf_max              =   1.3867622240127E-02
(PID.TID 0000.0001) %MON am_eta_mean                  =  -2.2624553236465E+11
(PID.TID 0000.0001) %MON am_uZo_mean                  =   2.2578048995332E+11
(PID.TID 0000.0001) %MON am_tot_mean                  =  -4.6504241133731E+08
(PID.TID 0000.0001) %MON pe_b_mean                    =   3.0279608892205E+01
(PID.TID 0000.0001) %MON ke_max                       =   5.3540377125260E+02
(PID.TID 0000.0001) %MON ke_mean                      =   1.0090283087593E+02
(PID.TID 0000.0001) %MON ke_vol                       =   5.0986421042785E+19
(PID.TID 0000.0001) %MON vort_r_min                   =  -1.2231148835520E-05
(PID.TID 0000.0001) %MON vort_r_max                   =   1.2228599189959E-05
(PID.TID 0000.0001) %MON vort_a_mean                  =  -1.4708131042711E-20
(PID.TID 0000.0001) %MON vort_a_sd                    =   8.5219604934414E-05
(PID.TID 0000.0001) %MON vort_p_mean                  =  -1.4708108680878E-20
(PID.TID 0000.0001) %MON vort_p_sd                    =   8.4248286901187E-05
(PID.TID 0000.0001) %MON surfExpan_theta_mean         =  -4.6670666674543E+00
(PID.TID 0000.0001) %MON surfExpan_salt_mean          =  -4.7202679514457E-04
(PID.TID 0000.0001) %MON surfExpan_Heat_mean          =  -4.1706651971096E+02
(PID.TID 0000.0001) %MON En_Budget_T2PE_mean          =   6.5184740664794E+01
(PID.TID 0000.0001) // =======================================================
(PID.TID 0000.0001) // End MONITOR dynamic field statistics
(PID.TID 0000.0001) // =======================================================
 cg2d: Sum(rhs),rhsMax =   1.49011611938477E-08  3.67632070112869E+04
(PID.TID 0000.0001)      cg2d_init_res =   6.64995211415436E+04
(PID.TID 0000.0001)      cg2d_iters(min,last) =      -1      14
(PID.TID 0000.0001)      cg2d_last_res =   1.41104124057944E-11
(PID.TID 0000.0001) // =======================================================
(PID.TID 0000.0001) // Begin MONITOR dynamic field statistics
(PID.TID 0000.0001) // =======================================================
(PID.TID 0000.0001) %MON time_tsnumber                =                    32
(PID.TID 0000.0001) %MON time_secondsf                =   1.1520000000000E+04
(PID.TID 0000.0001) %MON dynstat_eta_max              =   4.6156482579699E+03
(PID.TID 0000.0001) %MON dynstat_eta_min              =  -3.5075164769875E+03
(PID.TID 0000.0001) %MON dynstat_eta_mean             =  -6.8552631501637E-13
(PID.TID 0000.0001) %MON dynstat_eta_sd               =   2.7995049721396E+03
(PID.TID 0000.0001) %MON dynstat_eta_del2             =   7.9878430838536E-01
(PID.TID 0000.0001) %MON dynstat_uvel_max             =   3.3364360653589E+01
(PID.TID 0000.0001) %MON dynstat_uvel_min             =  -3.3364318001742E+01
(PID.TID 0000.0001) %MON dynstat_uvel_mean            =   1.2142879692273E+00
(PID.TID 0000.0001) %MON dynstat_uvel_sd              =   1.0147418818499E+01
(PID.TID 0000.0001) %MON dynstat_uvel_del2            =   1.9402095759205E-03
(PID.TID 0000.0001) %MON dynstat_vvel_max             =   3.3352500220719E+01
(PID.TID 0000.0001) %MON dynstat_vvel_min             =  -3.3338614021239E+01
(PID.TID 0000.0001) %MON dynstat_vvel_mean            =   1.2191864818121E+00
(PID.TID 0000.0001) %MON dynstat_vvel_sd              =   1.0146871988486E+01
(PID.TID 0000.0001) %MON dynstat_vvel_del2            =   1.9408116514215E-03
(PID.TID 0000.0001) %MON dynstat_wvel_max             =   3.2359463476256E-01
(PID.TID 0000.0001) %MON dynstat_wvel_min             =  -2.9287285915468E-01
(PID.TID 0000.0001) %MON dynstat_wvel_mean            =  -1.1824880011269E-16
(PID.TID 0000.0001) %MON dynstat_wvel_sd              =   1.0433153130285E-01
(PID.TID 0000.0001) %MON dynstat_wvel_del2            =   9.9220997397236E-05
(PID.TID 0000.0001) %MON dynstat_theta_max            =   1.1583183321344E+03
(PID.TID 0000.0001) %MON dynstat_theta_min            =   2.5826516952577E+02
(PID.TID 0000.0001) %MON dynstat_theta_mean           =   3.2789714169941E+02
(PID.TID 0000.0001) %MON dynstat_theta_sd             =   9.0398003185440E+01
(PID.TID 0000.0001) %MON dynstat_theta_del2           =   7.2563423070074E-04
(PID.TID 0000.0001) %MON dynstat_salt_max             =   2.0833472986323E-02
(PID.TID 0000.0001) %MON dynstat_salt_min             =   0.0000000000000E+00
(PID.TID 0000.0001) %MON dynstat_salt_mean            =   1.9034988392648E-03
(PID.TID 0000.0001) %MON dynstat_salt_sd              =   3.8974784791844E-03
(PID.TID 0000.0001) %MON dynstat_salt_del2            =   1.0620487389071E-06
(PID.TID 0000.0001) %MON advcfl_uvel_max              =   1.0078880022649E-01
(PID.TID 0000.0001) %MON advcfl_vvel_max              =   1.0075340444407E-01
(PID.TID 0000.0001) %MON advcfl_wvel_max              =   1.2472598342026E-02
(PID.TID 0000.0001) %MON advcfl_W_hf_max              =   1.4248129213337E-02
(PID.TID 0000.0001) %MON am_eta_mean                  =  -2.3746041299952E+11
(PID.TID 0000.0001) %MON am_uZo_mean                  =   2.3695842891629E+11
(PID.TID 0000.0001) %MON am_tot_mean                  =  -5.0198408322760E+08
(PID.TID 0000.0001) %MON pe_b_mean                    =   3.3192817762231E+01
(PID.TID 0000.0001) %MON ke_max                       =   5.5674591234033E+02
(PID.TID 0000.0001) %MON ke_mean                      =   1.0444501538929E+02
(PID.TID 0000.0001) %MON ke_vol                       =   5.0986421042785E+19
(PID.TID 0000.0001) %MON vort_r_min                   =  -1.2753437760843E-05
(PID.TID 0000.0001) %MON vort_r_max                   =   1.2750427888865E-05
(PID.TID 0000.0001) %MON vort_a_mean                  =   2.8925991050665E-19
(PID.TID 0000.0001) %MON vort_a_sd                    =   8.5270957932206E-05
(PID.TID 0000.0001) %MON vort_p_mean                  =   2.8925944672164E-19
(PID.TID 0000.0001) %MON vort_p_sd                    =   8.4250329530063E-05
(PID.TID 0000.0001) %MON surfExpan_theta_mean         =  -4.6141047285296E+00
(PID.TID 0000.0001) %MON surfExpan_salt_mean          =  -4.6963172129141E-04
(PID.TID 0000.0001) %MON surfExpan_Heat_mean          =  -4.1278038903329E+02
(PID.TID 0000.0001) %MON En_Budget_T2PE_mean          =   6.6037079377644E+01
(PID.TID 0000.0001) // =======================================================
(PID.TID 0000.0001) // End MONITOR dynamic field statistics
(PID.TID 0000.0001) // =======================================================
(PID.TID 0000.0001)   Exporting atmospheric fluxes at iter.        32
(PID.TID 0000.0001)   Importing oceanic fields at iteration        32
 cg2d: Sum(rhs),rhsMax =   7.45058059692383E-09  3.83898768296539E+04
(PID.TID 0000.0001)      cg2d_init_res =   6.58462001340394E+04
(PID.TID 0000.0001)      cg2d_iters(min,last) =      -1      14
(PID.TID 0000.0001)      cg2d_last_res =   1.48866846657957E-11
(PID.TID 0000.0001) // =======================================================
(PID.TID 0000.0001) // Begin MONITOR dynamic field statistics
(PID.TID 0000.0001) // =======================================================
(PID.TID 0000.0001) %MON time_tsnumber                =                    33
(PID.TID 0000.0001) %MON time_secondsf                =   1.1880000000000E+04
(PID.TID 0000.0001) %MON dynstat_eta_max              =   4.8163939469639E+03
(PID.TID 0000.0001) %MON dynstat_eta_min              =  -3.6645957816511E+03
(PID.TID 0000.0001) %MON dynstat_eta_mean             =   8.5690789377047E-14
(PID.TID 0000.0001) %MON dynstat_eta_sd               =   2.9239410585312E+03
(PID.TID 0000.0001) %MON dynstat_eta_del2             =   8.1481332310907E-01
(PID.TID 0000.0001) %MON dynstat_uvel_max             =   3.3950297399027E+01
(PID.TID 0000.0001) %MON dynstat_uvel_min             =  -3.3950544723890E+01
(PID.TID 0000.0001) %MON dynstat_uvel_mean            =   1.2681034607389E+00
(PID.TID 0000.0001) %MON dynstat_uvel_sd              =   1.0307691590464E+01
(PID.TID 0000.0001) %MON dynstat_uvel_del2            =   1.9665117206053E-03
(PID.TID 0000.0001) %MON dynstat_vvel_max             =   3.3938348752844E+01
(PID.TID 0000.0001) %MON dynstat_vvel_min             =  -3.3923332139686E+01
(PID.TID 0000.0001) %MON dynstat_vvel_mean            =   1.2732906508390E+00
(PID.TID 0000.0001) %MON dynstat_vvel_sd              =   1.0307051711298E+01
(PID.TID 0000.0001) %MON dynstat_vvel_del2            =   1.9669596988999E-03
(PID.TID 0000.0001) %MON dynstat_wvel_max             =   3.2687974499923E-01
(PID.TID 0000.0001) %MON dynstat_wvel_min             =  -2.8990328856315E-01
(PID.TID 0000.0001) %MON dynstat_wvel_mean            =   8.5541685187900E-17
(PID.TID 0000.0001) %MON dynstat_wvel_sd              =   1.0627981336415E-01
(PID.TID 0000.0001) %MON dynstat_wvel_del2            =   1.0008687043077E-04
(PID.TID 0000.0001) %MON dynstat_theta_max            =   1.1584391530006E+03
(PID.TID 0000.0001) %MON dynstat_theta_min            =   2.5833647530858E+02
(PID.TID 0000.0001) %MON dynstat_theta_mean           =   3.2789603129756E+02
(PID.TID 0000.0001) %MON dynstat_theta_sd             =   9.0400559255361E+01
(PID.TID 0000.0001) %MON dynstat_theta_del2           =   7.2823715210589E-04
(PID.TID 0000.0001) %MON dynstat_salt_max             =   2.1106696785739E-02
(PID.TID 0000.0001) %MON dynstat_salt_min             =   0.0000000000000E+00
(PID.TID 0000.0001) %MON dynstat_salt_mean            =   1.9075348719360E-03
(PID.TID 0000.0001) %MON dynstat_salt_sd              =   3.9028284678016E-03
(PID.TID 0000.0001) %MON dynstat_salt_del2            =   1.0744427432664E-06
(PID.TID 0000.0001) %MON advcfl_uvel_max              =   1.0248625238448E-01
(PID.TID 0000.0001) %MON advcfl_vvel_max              =   1.0245038750188E-01
(PID.TID 0000.0001) %MON advcfl_wvel_max              =   1.2599219293332E-02
(PID.TID 0000.0001) %MON advcfl_W_hf_max              =   1.4614888548054E-02
(PID.TID 0000.0001) %MON am_eta_mean                  =  -2.4859097485502E+11
(PID.TID 0000.0001) %MON am_uZo_mean                  =   2.4805153710006E+11
(PID.TID 0000.0001) %MON am_tot_mean                  =  -5.3943775496445E+08
(PID.TID 0000.0001) %MON pe_b_mean                    =   3.6209194417291E+01
(PID.TID 0000.0001) %MON ke_max                       =   5.7748186229652E+02
(PID.TID 0000.0001) %MON ke_mean                      =   1.0785658818607E+02
(PID.TID 0000.0001) %MON ke_vol                       =   5.0986421042785E+19
(PID.TID 0000.0001) %MON vort_r_min                   =  -1.3264732023361E-05
(PID.TID 0000.0001) %MON vort_r_max                   =   1.3261210070094E-05
(PID.TID 0000.0001) %MON vort_a_mean                  =   5.6381168997058E-20
(PID.TID 0000.0001) %MON vort_a_sd                    =   8.5322112733603E-05
(PID.TID 0000.0001) %MON vort_p_mean                  =   5.6381073795499E-20
(PID.TID 0000.0001) %MON vort_p_sd                    =   8.4252446962465E-05
(PID.TID 0000.0001) %MON surfExpan_theta_mean         =  -4.5479860930483E+00
(PID.TID 0000.0001) %MON surfExpan_salt_mean          =  -4.6596268168251E-04
(PID.TID 0000.0001) %MON surfExpan_Heat_mean          =  -4.0731352823379E+02
(PID.TID 0000.0001) %MON En_Budget_T2PE_mean          =   6.6796755702351E+01
(PID.TID 0000.0001) // =======================================================
(PID.TID 0000.0001) // End MONITOR dynamic field statistics
(PID.TID 0000.0001) // =======================================================
 cg2d: Sum(rhs),rhsMax =  -4.84287738800049E-08  3.99915768544194E+04
(PID.TID 0000.0001)      cg2d_init_res =   6.50081761218222E+04
(PID.TID 0000.0001)      cg2d_iters(min,last) =      -1      14
(PID.TID 0000.0001)      cg2d_last_res =   1.56676443953958E-11
(PID.TID 0000.0001) // =======================================================
(PID.TID 0000.0001) // Begin MONITOR dynamic field statistics
(PID.TID 0000.0001) // =======================================================
(PID.TID 0000.0001) %MON time_tsnumber                =                    34
(PID.TID 0000.0001) %MON time_secondsf                =   1.2240000000000E+04
(PID.TID 0000.0001) %MON dynstat_eta_max              =   5.0138566280130E+03
(PID.TID 0000.0001) %MON dynstat_eta_min              =  -3.8203236853944E+03
(PID.TID 0000.0001) %MON dynstat_eta_mean             =   6.8552631501637E-13
(PID.TID 0000.0001) %MON dynstat_eta_sd               =   3.0467899619013E+03
(PID.TID 0000.0001) %MON dynstat_eta_del2             =   8.3019299819762E-01
(PID.TID 0000.0001) %MON dynstat_uvel_max             =   3.4492135754177E+01
(PID.TID 0000.0001) %MON dynstat_uvel_min             =  -3.4492667988384E+01
(PID.TID 0000.0001) %MON dynstat_uvel_mean            =   1.3211847063413E+00
(PID.TID 0000.0001) %MON dynstat_uvel_sd              =   1.0458959918883E+01
(PID.TID 0000.0001) %MON dynstat_uvel_del2            =   1.9916073463214E-03
(PID.TID 0000.0001) %MON dynstat_vvel_max             =   3.4480070640114E+01
(PID.TID 0000.0001) %MON dynstat_vvel_min             =  -3.4463842620013E+01
(PID.TID 0000.0001) %MON dynstat_vvel_mean            =   1.3266624672390E+00
(PID.TID 0000.0001) %MON dynstat_vvel_sd              =   1.0458227302958E+01
(PID.TID 0000.0001) %MON dynstat_vvel_del2            =   1.9918734555800E-03
(PID.TID 0000.0001) %MON dynstat_wvel_max             =   3.2970597757259E-01
(PID.TID 0000.0001) %MON dynstat_wvel_min             =  -2.8627245570304E-01
(PID.TID 0000.0001) %MON dynstat_wvel_mean            =  -9.8121344774356E-17
(PID.TID 0000.0001) %MON dynstat_wvel_sd              =   1.0813608179412E-01
(PID.TID 0000.0001) %MON dynstat_wvel_del2            =   1.0087616123931E-04
(PID.TID 0000.0001) %MON dynstat_theta_max            =   1.1585604763001E+03
(PID.TID 0000.0001) %MON dynstat_theta_min            =   2.5840606412723E+02
(PID.TID 0000.0001) %MON dynstat_theta_mean           =   3.2789481860973E+02
(PID.TID 0000.0001) %MON dynstat_theta_sd             =   9.0403180393832E+01
(PID.TID 0000.0001) %MON dynstat_theta_del2           =   7.2797663856247E-04
(PID.TID 0000.0001) %MON dynstat_salt_max             =   2.1383809009710E-02
(PID.TID 0000.0001) %MON dynstat_salt_min             =   0.0000000000000E+00
(PID.TID 0000.0001) %MON dynstat_salt_mean            =   1.9117191229290E-03
(PID.TID 0000.0001) %MON dynstat_salt_sd              =   3.9084969197782E-03
(PID.TID 0000.0001) %MON dynstat_salt_del2            =   1.0892109375140E-06
(PID.TID 0000.0001) %MON advcfl_uvel_max              =   1.0406526783925E-01
(PID.TID 0000.0001) %MON advcfl_vvel_max              =   1.0403062073443E-01
(PID.TID 0000.0001) %MON advcfl_wvel_max              =   1.2708153311149E-02
(PID.TID 0000.0001) %MON advcfl_W_hf_max              =   1.4924122397273E-02
(PID.TID 0000.0001) %MON am_eta_mean                  =  -2.5960484382326E+11
(PID.TID 0000.0001) %MON am_uZo_mean                  =   2.5902769470127E+11
(PID.TID 0000.0001) %MON am_tot_mean                  =  -5.7714912198401E+08
(PID.TID 0000.0001) %MON pe_b_mean                    =   3.9315759281758E+01
(PID.TID 0000.0001) %MON ke_max                       =   5.9756542630595E+02
(PID.TID 0000.0001) %MON ke_mean                      =   1.1113496161759E+02
(PID.TID 0000.0001) %MON ke_vol                       =   5.0986421042785E+19
(PID.TID 0000.0001) %MON vort_r_min                   =  -1.3763209111442E-05
(PID.TID 0000.0001) %MON vort_r_max                   =   1.3759122996949E-05
(PID.TID 0000.0001) %MON vort_a_mean                  =  -1.5933808629603E-19
(PID.TID 0000.0001) %MON vort_a_sd                    =   8.5372930730651E-05
(PID.TID 0000.0001) %MON vort_p_mean                  =  -1.6178915411704E-19
(PID.TID 0000.0001) %MON vort_p_sd                    =   8.4254647925906E-05
(PID.TID 0000.0001) %MON surfExpan_theta_mean         =  -4.4690222935282E+00
(PID.TID 0000.0001) %MON surfExpan_salt_mean          =  -4.6102666118894E-04
(PID.TID 0000.0001) %MON surfExpan_Heat_mean          =  -4.0068931097663E+02
(PID.TID 0000.0001) %MON En_Budget_T2PE_mean          =   6.7463619932001E+01
(PID.TID 0000.0001) // =======================================================
(PID.TID 0000.0001) // End MONITOR dynamic field statistics
(PID.TID 0000.0001) // =======================================================
 cg2d: Sum(rhs),rhsMax =  -4.84287738800049E-08  4.15608896414735E+04
(PID.TID 0000.0001)      cg2d_init_res =   6.39886758038720E+04
(PID.TID 0000.0001)      cg2d_iters(min,last) =      -1      14
(PID.TID 0000.0001)      cg2d_last_res =   1.64442338565287E-11
(PID.TID 0000.0001) // =======================================================
(PID.TID 0000.0001) // Begin MONITOR dynamic field statistics
(PID.TID 0000.0001) // =======================================================
(PID.TID 0000.0001) %MON time_tsnumber                =                    35
(PID.TID 0000.0001) %MON time_secondsf                =   1.2600000000000E+04
(PID.TID 0000.0001) %MON dynstat_eta_max              =   5.2073657925820E+03
(PID.TID 0000.0001) %MON dynstat_eta_min              =  -3.9743429202004E+03
(PID.TID 0000.0001) %MON dynstat_eta_mean             =  -1.7138157875409E-13
(PID.TID 0000.0001) %MON dynstat_eta_sd               =   3.1677054664047E+03
(PID.TID 0000.0001) %MON dynstat_eta_del2             =   8.4492777058063E-01
(PID.TID 0000.0001) %MON dynstat_uvel_max             =   3.4989295248671E+01
(PID.TID 0000.0001) %MON dynstat_uvel_min             =  -3.4990109617289E+01
(PID.TID 0000.0001) %MON dynstat_uvel_mean            =   1.3733894134115E+00
(PID.TID 0000.0001) %MON dynstat_uvel_sd              =   1.0601591430114E+01
(PID.TID 0000.0001) %MON dynstat_uvel_del2            =   2.0155722219212E-03
(PID.TID 0000.0001) %MON dynstat_vvel_max             =   3.4977086485205E+01
(PID.TID 0000.0001) %MON dynstat_vvel_min             =  -3.4959576224529E+01
(PID.TID 0000.0001) %MON dynstat_vvel_mean            =   1.3791578762099E+00
(PID.TID 0000.0001) %MON dynstat_vvel_sd              =   1.0600765806063E+01
(PID.TID 0000.0001) %MON dynstat_vvel_del2            =   2.0156471064915E-03
(PID.TID 0000.0001) %MON dynstat_wvel_max             =   3.3216551748562E-01
(PID.TID 0000.0001) %MON dynstat_wvel_min             =  -2.8199121224686E-01
(PID.TID 0000.0001) %MON dynstat_wvel_mean            =  -7.7993889436027E-17
(PID.TID 0000.0001) %MON dynstat_wvel_sd              =   1.0990150955213E-01
(PID.TID 0000.0001) %MON dynstat_wvel_del2            =   1.0159855970421E-04
(PID.TID 0000.0001) %MON dynstat_theta_max            =   1.1586556060837E+03
(PID.TID 0000.0001) %MON dynstat_theta_min            =   2.5847411490807E+02
(PID.TID 0000.0001) %MON dynstat_theta_mean           =   3.2789351182702E+02
(PID.TID 0000.0001) %MON dynstat_theta_sd             =   9.0405857009414E+01
(PID.TID 0000.0001) %MON dynstat_theta_del2           =   7.2550346059457E-04
(PID.TID 0000.0001) %MON dynstat_salt_max             =   2.1657570954920E-02
(PID.TID 0000.0001) %MON dynstat_salt_min             =   0.0000000000000E+00
(PID.TID 0000.0001) %MON dynstat_salt_mean            =   1.9160582781810E-03
(PID.TID 0000.0001) %MON dynstat_salt_sd              =   3.9144997821186E-03
(PID.TID 0000.0001) %MON dynstat_salt_del2            =   1.1058721249128E-06
(PID.TID 0000.0001) %MON advcfl_uvel_max              =   1.0559411956275E-01
(PID.TID 0000.0001) %MON advcfl_vvel_max              =   1.0555896106846E-01
(PID.TID 0000.0001) %MON advcfl_wvel_max              =   1.2802953564756E-02
(PID.TID 0000.0001) %MON advcfl_W_hf_max              =   1.5220825071732E-02
(PID.TID 0000.0001) %MON am_eta_mean                  =  -2.7046999155248E+11
(PID.TID 0000.0001) %MON am_uZo_mean                  =   2.6985516233069E+11
(PID.TID 0000.0001) %MON am_tot_mean                  =  -6.1482922178879E+08
(PID.TID 0000.0001) %MON pe_b_mean                    =   4.2498267254506E+01
(PID.TID 0000.0001) %MON ke_max                       =   6.1695777437307E+02
(PID.TID 0000.0001) %MON ke_mean                      =   1.1427912572702E+02
(PID.TID 0000.0001) %MON ke_vol                       =   5.0986421042785E+19
(PID.TID 0000.0001) %MON vort_r_min                   =  -1.4247083070543E-05
(PID.TID 0000.0001) %MON vort_r_max                   =   1.4242388532510E-05
(PID.TID 0000.0001) %MON vort_a_mean                  =  -2.1817061046688E-19
(PID.TID 0000.0001) %MON vort_a_sd                    =   8.5423266977490E-05
(PID.TID 0000.0001) %MON vort_p_mean                  =  -2.1326750212866E-19
(PID.TID 0000.0001) %MON vort_p_sd                    =   8.4256934667566E-05
(PID.TID 0000.0001) %MON surfExpan_theta_mean         =  -4.3775651491805E+00
(PID.TID 0000.0001) %MON surfExpan_salt_mean          =  -4.5483510239754E-04
(PID.TID 0000.0001) %MON surfExpan_Heat_mean          =  -3.9293489448653E+02
(PID.TID 0000.0001) %MON En_Budget_T2PE_mean          =   6.8037761378639E+01
(PID.TID 0000.0001) // =======================================================
(PID.TID 0000.0001) // End MONITOR dynamic field statistics
(PID.TID 0000.0001) // =======================================================
 cg2d: Sum(rhs),rhsMax =   1.11758708953857E-08  4.30907619712396E+04
(PID.TID 0000.0001)      cg2d_init_res =   6.27915084111907E+04
(PID.TID 0000.0001)      cg2d_iters(min,last) =      -1      14
(PID.TID 0000.0001)      cg2d_last_res =   1.72072515027339E-11
(PID.TID 0000.0001) // =======================================================
(PID.TID 0000.0001) // Begin MONITOR dynamic field statistics
(PID.TID 0000.0001) // =======================================================
(PID.TID 0000.0001) %MON time_tsnumber                =                    36
(PID.TID 0000.0001) %MON time_secondsf                =   1.2960000000000E+04
(PID.TID 0000.0001) %MON dynstat_eta_max              =   5.3963464927209E+03
(PID.TID 0000.0001) %MON dynstat_eta_min              =  -4.1262911067962E+03
(PID.TID 0000.0001) %MON dynstat_eta_mean             =   8.5690789377047E-13
(PID.TID 0000.0001) %MON dynstat_eta_sd               =   3.2863476342191E+03
(PID.TID 0000.0001) %MON dynstat_eta_del2             =   8.5905586380110E-01
(PID.TID 0000.0001) %MON dynstat_uvel_max             =   3.5441341636041E+01
(PID.TID 0000.0001) %MON dynstat_uvel_min             =  -3.5442436586655E+01
(PID.TID 0000.0001) %MON dynstat_uvel_mean            =   1.4245789894132E+00
(PID.TID 0000.0001) %MON dynstat_uvel_sd              =   1.0735980946052E+01
(PID.TID 0000.0001) %MON dynstat_uvel_del2            =   2.0384846340036E-03
(PID.TID 0000.0001) %MON dynstat_vvel_max             =   3.5428967193828E+01
(PID.TID 0000.0001) %MON dynstat_vvel_min             =  -3.5410135227401E+01
(PID.TID 0000.0001) %MON dynstat_vvel_mean            =   1.4306366817725E+00
(PID.TID 0000.0001) %MON dynstat_vvel_sd              =   1.0735062128765E+01
(PID.TID 0000.0001) %MON dynstat_vvel_del2            =   2.0383566126805E-03
(PID.TID 0000.0001) %MON dynstat_wvel_max             =   3.3435634639414E-01
(PID.TID 0000.0001) %MON dynstat_wvel_min             =  -2.7706374382034E-01
(PID.TID 0000.0001) %MON dynstat_wvel_mean            =   2.0379048530059E-16
(PID.TID 0000.0001) %MON dynstat_wvel_sd              =   1.1157755073722E-01
(PID.TID 0000.0001) %MON dynstat_wvel_del2            =   1.0226352589789E-04
(PID.TID 0000.0001) %MON dynstat_theta_max            =   1.1587497434274E+03
(PID.TID 0000.0001) %MON dynstat_theta_min            =   2.5854067884266E+02
(PID.TID 0000.0001) %MON dynstat_theta_mean           =   3.2789211784427E+02
(PID.TID 0000.0001) %MON dynstat_theta_sd             =   9.0408580950701E+01
(PID.TID 0000.0001) %MON dynstat_theta_del2           =   7.2166198740715E-04
(PID.TID 0000.0001) %MON dynstat_salt_max             =   2.1926730204965E-02
(PID.TID 0000.0001) %MON dynstat_salt_min             =   0.0000000000000E+00
(PID.TID 0000.0001) %MON dynstat_salt_mean            =   1.9205584426680E-03
(PID.TID 0000.0001) %MON dynstat_salt_sd              =   3.9208436980306E-03
(PID.TID 0000.0001) %MON dynstat_salt_del2            =   1.1236033696256E-06
(PID.TID 0000.0001) %MON advcfl_uvel_max              =   1.0698816181747E-01
(PID.TID 0000.0001) %MON advcfl_vvel_max              =   1.0695236941065E-01
(PID.TID 0000.0001) %MON advcfl_wvel_max              =   1.2991613463249E-02
(PID.TID 0000.0001) %MON advcfl_W_hf_max              =   1.5507344424591E-02
(PID.TID 0000.0001) %MON am_eta_mean                  =  -2.8115482824513E+11
(PID.TID 0000.0001) %MON am_uZo_mean                  =   2.8050267136228E+11
(PID.TID 0000.0001) %MON am_tot_mean                  =  -6.5215688284454E+08
(PID.TID 0000.0001) %MON pe_b_mean                    =   4.5741314255619E+01
(PID.TID 0000.0001) %MON ke_max                       =   6.3562732346185E+02
(PID.TID 0000.0001) %MON ke_mean                      =   1.1728949619708E+02
(PID.TID 0000.0001) %MON ke_vol                       =   5.0986421042785E+19
(PID.TID 0000.0001) %MON vort_r_min                   =  -1.4714608225403E-05
(PID.TID 0000.0001) %MON vort_r_max                   =   1.4709281540743E-05
(PID.TID 0000.0001) %MON vort_a_mean                  =   1.8140028286010E-19
(PID.TID 0000.0001) %MON vort_a_sd                    =   8.5472976118880E-05
(PID.TID 0000.0001) %MON vort_p_mean                  =   1.8385127790214E-19
(PID.TID 0000.0001) %MON vort_p_sd                    =   8.4259308229281E-05
(PID.TID 0000.0001) %MON surfExpan_theta_mean         =  -4.2740016177445E+00
(PID.TID 0000.0001) %MON surfExpan_salt_mean          =  -4.4740178551940E-04
(PID.TID 0000.0001) %MON surfExpan_Heat_mean          =  -3.8408067473864E+02
(PID.TID 0000.0001) %MON En_Budget_T2PE_mean          =   6.8519440166992E+01
(PID.TID 0000.0001) // =======================================================
(PID.TID 0000.0001) // End MONITOR dynamic field statistics
(PID.TID 0000.0001) // =======================================================
 cg2d: Sum(rhs),rhsMax =   1.86264514923096E-08  4.45746421918077E+04
(PID.TID 0000.0001)      cg2d_init_res =   6.14210567641900E+04
(PID.TID 0000.0001)      cg2d_iters(min,last) =      -1      14
(PID.TID 0000.0001)      cg2d_last_res =   1.79447495053528E-11
(PID.TID 0000.0001) // =======================================================
(PID.TID 0000.0001) // Begin MONITOR dynamic field statistics
(PID.TID 0000.0001) // =======================================================
(PID.TID 0000.0001) %MON time_tsnumber                =                    37
(PID.TID 0000.0001) %MON time_secondsf                =   1.3320000000000E+04
(PID.TID 0000.0001) %MON dynstat_eta_max              =   5.5806203036058E+03
(PID.TID 0000.0001) %MON dynstat_eta_min              =  -4.2758023830825E+03
(PID.TID 0000.0001) %MON dynstat_eta_mean             =   7.7121710439342E-13
(PID.TID 0000.0001) %MON dynstat_eta_sd               =   3.4023837606956E+03
(PID.TID 0000.0001) %MON dynstat_eta_del2             =   8.7262588019146E-01
(PID.TID 0000.0001) %MON dynstat_uvel_max             =   3.5847978714594E+01
(PID.TID 0000.0001) %MON dynstat_uvel_min             =  -3.5849366042392E+01
(PID.TID 0000.0001) %MON dynstat_uvel_mean            =   1.4746187863045E+00
(PID.TID 0000.0001) %MON dynstat_uvel_sd              =   1.0862541467228E+01
(PID.TID 0000.0001) %MON dynstat_uvel_del2            =   2.0604225662625E-03
(PID.TID 0000.0001) %MON dynstat_vvel_max             =   3.5835417702254E+01
(PID.TID 0000.0001) %MON dynstat_vvel_min             =  -3.5815279381964E+01
(PID.TID 0000.0001) %MON dynstat_vvel_mean            =   1.4809628688951E+00
(PID.TID 0000.0001) %MON dynstat_vvel_sd              =   1.0861529717951E+01
(PID.TID 0000.0001) %MON dynstat_vvel_del2            =   2.0600844112537E-03
(PID.TID 0000.0001) %MON dynstat_wvel_max             =   3.3638016695928E-01
(PID.TID 0000.0001) %MON dynstat_wvel_min             =  -2.7149304661878E-01
(PID.TID 0000.0001) %MON dynstat_wvel_mean            =   5.5350502180406E-17
(PID.TID 0000.0001) %MON dynstat_wvel_sd              =   1.1316615347478E-01
(PID.TID 0000.0001) %MON dynstat_wvel_del2            =   1.0288042485600E-04
(PID.TID 0000.0001) %MON dynstat_theta_max            =   1.1588176673747E+03
(PID.TID 0000.0001) %MON dynstat_theta_min            =   2.5860584664900E+02
(PID.TID 0000.0001) %MON dynstat_theta_mean           =   3.2789064303293E+02
(PID.TID 0000.0001) %MON dynstat_theta_sd             =   9.0411344706575E+01
(PID.TID 0000.0001) %MON dynstat_theta_del2           =   7.1762067113000E-04
(PID.TID 0000.0001) %MON dynstat_salt_max             =   2.2201539786571E-02
(PID.TID 0000.0001) %MON dynstat_salt_min             =   0.0000000000000E+00
(PID.TID 0000.0001) %MON dynstat_salt_mean            =   1.9252257773075E-03
(PID.TID 0000.0001) %MON dynstat_salt_sd              =   3.9275354257678E-03
(PID.TID 0000.0001) %MON dynstat_salt_del2            =   1.1446073013514E-06
(PID.TID 0000.0001) %MON advcfl_uvel_max              =   1.0824663795394E-01
(PID.TID 0000.0001) %MON advcfl_vvel_max              =   1.0821009638162E-01
(PID.TID 0000.0001) %MON advcfl_wvel_max              =   1.3200626655611E-02
(PID.TID 0000.0001) %MON advcfl_W_hf_max              =   1.5787189702376E-02
(PID.TID 0000.0001) %MON am_eta_mean                  =  -2.9162829617444E+11
(PID.TID 0000.0001) %MON am_uZo_mean                  =   2.9093951938871E+11
(PID.TID 0000.0001) %MON am_tot_mean                  =  -6.8877678573602E+08
(PID.TID 0000.0001) %MON pe_b_mean                    =   4.9028457379555E+01
(PID.TID 0000.0001) %MON ke_max                       =   6.5354946338834E+02
(PID.TID 0000.0001) %MON ke_mean                      =   1.2016769326220E+02
(PID.TID 0000.0001) %MON ke_vol                       =   5.0986421042785E+19
(PID.TID 0000.0001) %MON vort_r_min                   =  -1.5164089411310E-05
(PID.TID 0000.0001) %MON vort_r_max                   =   1.5158134904032E-05
(PID.TID 0000.0001) %MON vort_a_mean                  =   4.9027103475703E-20
(PID.TID 0000.0001) %MON vort_a_sd                    =   8.5521913532138E-05
(PID.TID 0000.0001) %MON vort_p_mean                  =   4.6575652629079E-20
(PID.TID 0000.0001) %MON vort_p_sd                    =   8.4261769087196E-05
(PID.TID 0000.0001) %MON surfExpan_theta_mean         =  -4.1587509480224E+00
(PID.TID 0000.0001) %MON surfExpan_salt_mean          =  -4.3874308560618E-04
(PID.TID 0000.0001) %MON surfExpan_Heat_mean          =  -3.7416011291106E+02
(PID.TID 0000.0001) %MON En_Budget_T2PE_mean          =   6.8909008527835E+01
(PID.TID 0000.0001) // =======================================================
(PID.TID 0000.0001) // End MONITOR dynamic field statistics
(PID.TID 0000.0001) // =======================================================
 cg2d: Sum(rhs),rhsMax =  -8.19563865661621E-08  4.60065465567533E+04
(PID.TID 0000.0001)      cg2d_init_res =   5.98823063789807E+04
(PID.TID 0000.0001)      cg2d_iters(min,last) =      -1      14
(PID.TID 0000.0001)      cg2d_last_res =   1.86445292901139E-11
(PID.TID 0000.0001) // =======================================================
(PID.TID 0000.0001) // Begin MONITOR dynamic field statistics
(PID.TID 0000.0001) // =======================================================
(PID.TID 0000.0001) %MON time_tsnumber                =                    38
(PID.TID 0000.0001) %MON time_secondsf                =   1.3680000000000E+04
(PID.TID 0000.0001) %MON dynstat_eta_max              =   5.7589990687123E+03
(PID.TID 0000.0001) %MON dynstat_eta_min              =  -4.4225082476472E+03
(PID.TID 0000.0001) %MON dynstat_eta_mean             =   1.7138157875409E-13
(PID.TID 0000.0001) %MON dynstat_eta_sd               =   3.5154893001447E+03
(PID.TID 0000.0001) %MON dynstat_eta_del2             =   8.8568285963196E-01
(PID.TID 0000.0001) %MON dynstat_uvel_max             =   3.6275724873637E+01
(PID.TID 0000.0001) %MON dynstat_uvel_min             =  -3.6272174940229E+01
(PID.TID 0000.0001) %MON dynstat_uvel_mean            =   1.5233783379065E+00
(PID.TID 0000.0001) %MON dynstat_uvel_sd              =   1.0981722429246E+01
(PID.TID 0000.0001) %MON dynstat_uvel_del2            =   2.0814963031489E-03
(PID.TID 0000.0001) %MON dynstat_vvel_max             =   3.6259107581718E+01
(PID.TID 0000.0001) %MON dynstat_vvel_min             =  -3.6262937600200E+01
(PID.TID 0000.0001) %MON dynstat_vvel_mean            =   1.5300050251501E+00
(PID.TID 0000.0001) %MON dynstat_vvel_sd              =   1.0980618474155E+01
(PID.TID 0000.0001) %MON dynstat_vvel_del2            =   2.0809343352702E-03
(PID.TID 0000.0001) %MON dynstat_wvel_max             =   3.3834223609203E-01
(PID.TID 0000.0001) %MON dynstat_wvel_min             =  -2.6526901025104E-01
(PID.TID 0000.0001) %MON dynstat_wvel_mean            =  -2.0882234913517E-16
(PID.TID 0000.0001) %MON dynstat_wvel_sd              =   1.1466945181972E-01
(PID.TID 0000.0001) %MON dynstat_wvel_del2            =   1.0346075605659E-04
(PID.TID 0000.0001) %MON dynstat_theta_max            =   1.1588682726658E+03
(PID.TID 0000.0001) %MON dynstat_theta_min            =   2.5866971023729E+02
(PID.TID 0000.0001) %MON dynstat_theta_mean           =   3.2788908833113E+02
(PID.TID 0000.0001) %MON dynstat_theta_sd             =   9.0414143789493E+01
(PID.TID 0000.0001) %MON dynstat_theta_del2           =   7.1436223450502E-04
(PID.TID 0000.0001) %MON dynstat_salt_max             =   2.2478863327489E-02
(PID.TID 0000.0001) %MON dynstat_salt_min             =   0.0000000000000E+00
(PID.TID 0000.0001) %MON dynstat_salt_mean            =   1.9300671890585E-03
(PID.TID 0000.0001) %MON dynstat_salt_sd              =   3.9345906894587E-03
(PID.TID 0000.0001) %MON dynstat_salt_del2            =   1.1673533922804E-06
(PID.TID 0000.0001) %MON advcfl_uvel_max              =   1.0936962038726E-01
(PID.TID 0000.0001) %MON advcfl_vvel_max              =   1.0933184266174E-01
(PID.TID 0000.0001) %MON advcfl_wvel_max              =   1.3407380401251E-02
(PID.TID 0000.0001) %MON advcfl_W_hf_max              =   1.6059218562840E-02
(PID.TID 0000.0001) %MON am_eta_mean                  =  -3.0185996230867E+11
(PID.TID 0000.0001) %MON am_uZo_mean                  =   3.0113566240868E+11
(PID.TID 0000.0001) %MON am_tot_mean                  =  -7.2429989998633E+08
(PID.TID 0000.0001) %MON pe_b_mean                    =   5.2342347461908E+01
(PID.TID 0000.0001) %MON ke_max                       =   6.7070624681938E+02
(PID.TID 0000.0001) %MON ke_mean                      =   1.2291690326223E+02
(PID.TID 0000.0001) %MON ke_vol                       =   5.0986421042785E+19
(PID.TID 0000.0001) %MON vort_r_min                   =  -1.5593887234041E-05
(PID.TID 0000.0001) %MON vort_r_max                   =   1.5587340482446E-05
(PID.TID 0000.0001) %MON vort_a_mean                  =  -7.3540655213554E-20
(PID.TID 0000.0001) %MON vort_a_sd                    =   8.5569938640958E-05
(PID.TID 0000.0001) %MON vort_p_mean                  =  -7.1089147047412E-20
(PID.TID 0000.0001) %MON vort_p_sd                    =   8.4264319788016E-05
(PID.TID 0000.0001) %MON surfExpan_theta_mean         =  -4.0322648837093E+00
(PID.TID 0000.0001) %MON surfExpan_salt_mean          =  -4.2887753438069E-04
(PID.TID 0000.0001) %MON surfExpan_Heat_mean          =  -3.6320971073558E+02
(PID.TID 0000.0001) %MON En_Budget_T2PE_mean          =   6.9207126153460E+01
(PID.TID 0000.0001) // =======================================================
(PID.TID 0000.0001) // End MONITOR dynamic field statistics
(PID.TID 0000.0001) // =======================================================
 cg2d: Sum(rhs),rhsMax =   1.11758708953857E-08  4.73810567522325E+04
(PID.TID 0000.0001)      cg2d_init_res =   5.81808633864976E+04
(PID.TID 0000.0001)      cg2d_iters(min,last) =      -1      14
(PID.TID 0000.0001)      cg2d_last_res =   1.92957292228664E-11
(PID.TID 0000.0001) // =======================================================
(PID.TID 0000.0001) // Begin MONITOR dynamic field statistics
(PID.TID 0000.0001) // =======================================================
(PID.TID 0000.0001) %MON time_tsnumber                =                    39
(PID.TID 0000.0001) %MON time_secondsf                =   1.4040000000000E+04
(PID.TID 0000.0001) %MON dynstat_eta_max              =   5.9307529361575E+03
(PID.TID 0000.0001) %MON dynstat_eta_min              =  -4.5660430365254E+03
(PID.TID 0000.0001) %MON dynstat_eta_mean             =   1.1996710512787E-12
(PID.TID 0000.0001) %MON dynstat_eta_sd               =   3.6253487624425E+03
(PID.TID 0000.0001) %MON dynstat_eta_del2             =   8.9827338356230E-01
(PID.TID 0000.0001) %MON dynstat_uvel_max             =   3.6744314041187E+01
(PID.TID 0000.0001) %MON dynstat_uvel_min             =  -3.6740747221950E+01
(PID.TID 0000.0001) %MON dynstat_uvel_mean            =   1.5707317437422E+00
(PID.TID 0000.0001) %MON dynstat_uvel_sd              =   1.1093984079577E+01
(PID.TID 0000.0001) %MON dynstat_uvel_del2            =   2.1018083837245E-03
(PID.TID 0000.0001) %MON dynstat_vvel_max             =   3.6727379114114E+01
(PID.TID 0000.0001) %MON dynstat_vvel_min             =  -3.6731260673041E+01
(PID.TID 0000.0001) %MON dynstat_vvel_mean            =   1.5776363769445E+00
(PID.TID 0000.0001) %MON dynstat_vvel_sd              =   1.1092788453720E+01
(PID.TID 0000.0001) %MON dynstat_vvel_del2            =   2.1010103044724E-03
(PID.TID 0000.0001) %MON dynstat_wvel_max             =   3.4092071577614E-01
(PID.TID 0000.0001) %MON dynstat_wvel_min             =  -2.5837471917711E-01
(PID.TID 0000.0001) %MON dynstat_wvel_mean            =   1.4089218736831E-16
(PID.TID 0000.0001) %MON dynstat_wvel_sd              =   1.1609012624211E-01
(PID.TID 0000.0001) %MON dynstat_wvel_del2            =   1.0401196367991E-04
(PID.TID 0000.0001) %MON dynstat_theta_max            =   1.1590219458824E+03
(PID.TID 0000.0001) %MON dynstat_theta_min            =   2.5873234768317E+02
(PID.TID 0000.0001) %MON dynstat_theta_mean           =   3.2788746777439E+02
(PID.TID 0000.0001) %MON dynstat_theta_sd             =   9.0416967233650E+01
(PID.TID 0000.0001) %MON dynstat_theta_del2           =   7.1292026307567E-04
(PID.TID 0000.0001) %MON dynstat_salt_max             =   2.2749351652321E-02
(PID.TID 0000.0001) %MON dynstat_salt_min             =   9.9679392521740-235
(PID.TID 0000.0001) %MON dynstat_salt_mean            =   1.9350843803316E-03
(PID.TID 0000.0001) %MON dynstat_salt_sd              =   3.9420071999568E-03
(PID.TID 0000.0001) %MON dynstat_salt_del2            =   1.1935412817912E-06
(PID.TID 0000.0001) %MON advcfl_uvel_max              =   1.1035697981241E-01
(PID.TID 0000.0001) %MON advcfl_vvel_max              =   1.1031771464814E-01
(PID.TID 0000.0001) %MON advcfl_wvel_max              =   1.3655366002993E-02
(PID.TID 0000.0001) %MON advcfl_W_hf_max              =   1.6329622971045E-02
(PID.TID 0000.0001) %MON am_eta_mean                  =  -3.1182010942265E+11
(PID.TID 0000.0001) %MON am_uZo_mean                  =   3.1106180625509E+11
(PID.TID 0000.0001) %MON am_tot_mean                  =  -7.5830316756067E+08
(PID.TID 0000.0001) %MON pe_b_mean                    =   5.5664872700854E+01
(PID.TID 0000.0001) %MON ke_max                       =   6.8708597599300E+02
(PID.TID 0000.0001) %MON ke_mean                      =   1.2554128659228E+02
(PID.TID 0000.0001) %MON ke_vol                       =   5.0986421042785E+19
(PID.TID 0000.0001) %MON vort_r_min                   =  -1.6002423721543E-05
(PID.TID 0000.0001) %MON vort_r_max                   =   1.5995356365093E-05
(PID.TID 0000.0001) %MON vort_a_mean                  =   5.1478458649488E-20
(PID.TID 0000.0001) %MON vort_a_sd                    =   8.5616910963408E-05
(PID.TID 0000.0001) %MON vort_p_mean                  =   5.1478342682377E-20
(PID.TID 0000.0001) %MON vort_p_sd                    =   8.4266960641193E-05
(PID.TID 0000.0001) %MON surfExpan_theta_mean         =  -3.8950193919990E+00
(PID.TID 0000.0001) %MON surfExpan_salt_mean          =  -4.1782757341295E-04
(PID.TID 0000.0001) %MON surfExpan_Heat_mean          =  -3.5126836534727E+02
(PID.TID 0000.0001) %MON En_Budget_T2PE_mean          =   6.9414457763377E+01
(PID.TID 0000.0001) // =======================================================
(PID.TID 0000.0001) // End MONITOR dynamic field statistics
(PID.TID 0000.0001) // =======================================================
 cg2d: Sum(rhs),rhsMax =  -7.45058059692383E-09  4.86932606846424E+04
(PID.TID 0000.0001)      cg2d_init_res =   5.63229458540383E+04
(PID.TID 0000.0001)      cg2d_iters(min,last) =      -1      14
(PID.TID 0000.0001)      cg2d_last_res =   1.98851439405186E-11
(PID.TID 0000.0001) // =======================================================
(PID.TID 0000.0001) // Begin MONITOR dynamic field statistics
(PID.TID 0000.0001) // =======================================================
(PID.TID 0000.0001) %MON time_tsnumber                =                    40
(PID.TID 0000.0001) %MON time_secondsf                =   1.4400000000000E+04
(PID.TID 0000.0001) %MON dynstat_eta_max              =   6.0951466863304E+03
(PID.TID 0000.0001) %MON dynstat_eta_min              =  -4.7060469368175E+03
(PID.TID 0000.0001) %MON dynstat_eta_mean             =   8.5690789377047E-14
(PID.TID 0000.0001) %MON dynstat_eta_sd               =   3.7316565712010E+03
(PID.TID 0000.0001) %MON dynstat_eta_del2             =   9.1044465357618E-01
(PID.TID 0000.0001) %MON dynstat_uvel_max             =   3.7171514616969E+01
(PID.TID 0000.0001) %MON dynstat_uvel_min             =  -3.7167921081792E+01
(PID.TID 0000.0001) %MON dynstat_uvel_mean            =   1.6165577682917E+00
(PID.TID 0000.0001) %MON dynstat_uvel_sd              =   1.1199800857192E+01
(PID.TID 0000.0001) %MON dynstat_uvel_del2            =   2.1214850625003E-03
(PID.TID 0000.0001) %MON dynstat_vvel_max             =   3.7154260861407E+01
(PID.TID 0000.0001) %MON dynstat_vvel_min             =  -3.7158212167674E+01
(PID.TID 0000.0001) %MON dynstat_vvel_mean            =   1.6237351067285E+00
(PID.TID 0000.0001) %MON dynstat_vvel_sd              =   1.1198514963525E+01
(PID.TID 0000.0001) %MON dynstat_vvel_del2            =   2.1204202598657E-03
(PID.TID 0000.0001) %MON dynstat_wvel_max             =   3.4395845477765E-01
(PID.TID 0000.0001) %MON dynstat_wvel_min             =  -2.5079599509532E-01
(PID.TID 0000.0001) %MON dynstat_wvel_mean            =  -2.7675251090203E-16
(PID.TID 0000.0001) %MON dynstat_wvel_sd              =   1.1743125060020E-01
(PID.TID 0000.0001) %MON dynstat_wvel_del2            =   1.0454149225189E-04
(PID.TID 0000.0001) %MON dynstat_theta_max            =   1.1591842410250E+03
(PID.TID 0000.0001) %MON dynstat_theta_min            =   2.5879383541659E+02
(PID.TID 0000.0001) %MON dynstat_theta_mean           =   3.2788580586471E+02
(PID.TID 0000.0001) %MON dynstat_theta_sd             =   9.0419799320089E+01
(PID.TID 0000.0001) %MON dynstat_theta_del2           =   7.1400323098069E-04
(PID.TID 0000.0001) %MON dynstat_salt_max             =   2.3012373035722E-02
(PID.TID 0000.0001) %MON dynstat_salt_min             =   9.0272377421015-219
(PID.TID 0000.0001) %MON dynstat_salt_mean            =   1.9402744048937E-03
(PID.TID 0000.0001) %MON dynstat_salt_sd              =   3.9497875582057E-03
(PID.TID 0000.0001) %MON dynstat_salt_del2            =   1.2230753449443E-06
(PID.TID 0000.0001) %MON advcfl_uvel_max              =   1.1120907274435E-01
(PID.TID 0000.0001) %MON advcfl_vvel_max              =   1.1116816568082E-01
(PID.TID 0000.0001) %MON advcfl_wvel_max              =   1.3904964875619E-02
(PID.TID 0000.0001) %MON advcfl_W_hf_max              =   1.6557737801633E-02
(PID.TID 0000.0001) %MON am_eta_mean                  =  -3.2147982536022E+11
(PID.TID 0000.0001) %MON am_uZo_mean                  =   3.2068949662458E+11
(PID.TID 0000.0001) %MON am_tot_mean                  =  -7.9032873564417E+08
(PID.TID 0000.0001) %MON pe_b_mean                    =   5.8977311573177E+01
(PID.TID 0000.0001) %MON ke_max                       =   7.0268302725678E+02
(PID.TID 0000.0001) %MON ke_mean                      =   1.2804602567151E+02
(PID.TID 0000.0001) %MON ke_vol                       =   5.0986421042785E+19
(PID.TID 0000.0001) %MON vort_r_min                   =  -1.6388182428698E-05
(PID.TID 0000.0001) %MON vort_r_max                   =   1.6380705517178E-05
(PID.TID 0000.0001) %MON vort_a_mean                  =  -3.1867617259207E-20
(PID.TID 0000.0001) %MON vort_a_sd                    =   8.5662692713506E-05
(PID.TID 0000.0001) %MON vort_p_mean                  =  -3.1867542181757E-20
(PID.TID 0000.0001) %MON vort_p_sd                    =   8.4269691712030E-05
(PID.TID 0000.0001) %MON surfExpan_theta_mean         =  -3.7475144050315E+00
(PID.TID 0000.0001) %MON surfExpan_salt_mean          =  -4.0561911924538E-04
(PID.TID 0000.0001) %MON surfExpan_Heat_mean          =  -3.3837732994086E+02
(PID.TID 0000.0001) %MON En_Budget_T2PE_mean          =   6.9531783490445E+01
(PID.TID 0000.0001) // =======================================================
(PID.TID 0000.0001) // End MONITOR dynamic field statistics
(PID.TID 0000.0001) // =======================================================
(PID.TID 0000.0001) DIAGSTATS_CLOSE_IO: close file: dynStDiag.0000000000.txt , unit=     9
(PID.TID 0000.0001) DIAGSTATS_CLOSE_IO: close file: diffStDiag.0000000000.txt , unit=    10
(PID.TID 0000.0001) DIAGSTATS_CLOSE_IO: close file: flxStDiag.0000000000.txt , unit=    16
(PID.TID 0000.0001) %CHECKPOINT        40 ckptA
(PID.TID 0000.0001)   Seconds in section "ALL                    [THE_MODEL_MAIN]":
(PID.TID 0000.0001)           User time:   125.67000000000000
(PID.TID 0000.0001)         System time:  0.93000000000000005
(PID.TID 0000.0001)     Wall clock time:   127.39376497268677
(PID.TID 0000.0001)          No. starts:           1
(PID.TID 0000.0001)           No. stops:           1
(PID.TID 0000.0001)   Seconds in section "INITIALISE_FIXED       [THE_MODEL_MAIN]":
(PID.TID 0000.0001)           User time:  0.33000000000000002
(PID.TID 0000.0001)         System time:  4.00000000000000008E-002
(PID.TID 0000.0001)     Wall clock time:  0.52793312072753906
(PID.TID 0000.0001)          No. starts:           1
(PID.TID 0000.0001)           No. stops:           1
(PID.TID 0000.0001)   Seconds in section "THE_MAIN_LOOP          [THE_MODEL_MAIN]":
(PID.TID 0000.0001)           User time:   125.34000000000000
(PID.TID 0000.0001)         System time:  0.89000000000000001
(PID.TID 0000.0001)     Wall clock time:   126.86579394340515
(PID.TID 0000.0001)          No. starts:           1
(PID.TID 0000.0001)           No. stops:           1
(PID.TID 0000.0001)   Seconds in section "INITIALISE_VARIA    [THE_MAIN_LOOP]":
(PID.TID 0000.0001)           User time:   1.2000000000000000
(PID.TID 0000.0001)         System time:  7.00000000000000067E-002
(PID.TID 0000.0001)     Wall clock time:   1.6082139015197754
(PID.TID 0000.0001)          No. starts:           1
(PID.TID 0000.0001)           No. stops:           1
(PID.TID 0000.0001)   Seconds in section "MAIN LOOP           [THE_MAIN_LOOP]":
(PID.TID 0000.0001)           User time:   124.14000000000000
(PID.TID 0000.0001)         System time:  0.82000000000000006
(PID.TID 0000.0001)     Wall clock time:   125.25754094123840
(PID.TID 0000.0001)          No. starts:           1
(PID.TID 0000.0001)           No. stops:           1
(PID.TID 0000.0001)   Seconds in section "MAIN_DO_LOOP        [THE_MAIN_LOOP]":
(PID.TID 0000.0001)           User time:   124.14000000000004
(PID.TID 0000.0001)         System time:  0.82000000000000040
(PID.TID 0000.0001)     Wall clock time:   125.25716924667358
(PID.TID 0000.0001)          No. starts:          40
(PID.TID 0000.0001)           No. stops:          40
(PID.TID 0000.0001)   Seconds in section "FORWARD_STEP        [MAIN_DO_LOOP]":
(PID.TID 0000.0001)           User time:   124.14000000000004
(PID.TID 0000.0001)         System time:  0.82000000000000040
(PID.TID 0000.0001)     Wall clock time:   125.25641989707947
(PID.TID 0000.0001)          No. starts:          40
(PID.TID 0000.0001)           No. stops:          40
(PID.TID 0000.0001)   Seconds in section "DO_STATEVARS_DIAGS  [FORWARD_STEP]":
(PID.TID 0000.0001)           User time:   5.0300000000000011
(PID.TID 0000.0001)         System time:  1.00000000000000089E-002
(PID.TID 0000.0001)     Wall clock time:   5.0109744071960449
(PID.TID 0000.0001)          No. starts:         120
(PID.TID 0000.0001)           No. stops:         120
(PID.TID 0000.0001)   Seconds in section "LOAD_FIELDS_DRIVER  [FORWARD_STEP]":
(PID.TID 0000.0001)           User time:  0.11999999999999034
(PID.TID 0000.0001)         System time:   0.0000000000000000
(PID.TID 0000.0001)     Wall clock time:  0.12421298027038574
(PID.TID 0000.0001)          No. starts:          40
(PID.TID 0000.0001)           No. stops:          40
(PID.TID 0000.0001)   Seconds in section "EXTERNAL_FLDS_LOAD [LOAD_FLDS_DRIVER]":
(PID.TID 0000.0001)           User time:   0.0000000000000000
(PID.TID 0000.0001)         System time:   0.0000000000000000
(PID.TID 0000.0001)     Wall clock time:  3.89337539672851563E-004
(PID.TID 0000.0001)          No. starts:          40
(PID.TID 0000.0001)           No. stops:          40
(PID.TID 0000.0001)   Seconds in section "CPL_EXPORT-IMPORT  [FORWARD_STEP]":
(PID.TID 0000.0001)           User time:  1.00000000000051159E-002
(PID.TID 0000.0001)         System time:   0.0000000000000000
(PID.TID 0000.0001)     Wall clock time:  1.33669376373291016E-002
(PID.TID 0000.0001)          No. starts:          40
(PID.TID 0000.0001)           No. stops:          40
(PID.TID 0000.0001)   Seconds in section "DO_ATMOSPHERIC_PHYS [FORWARD_STEP]":
(PID.TID 0000.0001)           User time:   13.590000000000074
(PID.TID 0000.0001)         System time:  0.74000000000000055
(PID.TID 0000.0001)     Wall clock time:   14.374211072921753
(PID.TID 0000.0001)          No. starts:          40
(PID.TID 0000.0001)           No. stops:          40
(PID.TID 0000.0001)   Seconds in section "ATM_PHYS_DRIVER [DO_ATMOSPHERIC_PHYS]":
(PID.TID 0000.0001)           User time:   13.580000000000084
(PID.TID 0000.0001)         System time:  0.74000000000000055
(PID.TID 0000.0001)     Wall clock time:   14.373347043991089
(PID.TID 0000.0001)          No. starts:          40
(PID.TID 0000.0001)           No. stops:          40
(PID.TID 0000.0001)   Seconds in section "DO_OCEANIC_PHYS     [FORWARD_STEP]":
(PID.TID 0000.0001)           User time:   0.0000000000000000
(PID.TID 0000.0001)         System time:   0.0000000000000000
(PID.TID 0000.0001)     Wall clock time:  9.76777076721191406E-003
(PID.TID 0000.0001)          No. starts:          40
(PID.TID 0000.0001)           No. stops:          40
(PID.TID 0000.0001)   Seconds in section "DYNAMICS            [FORWARD_STEP]":
(PID.TID 0000.0001)           User time:   31.749999999999957
(PID.TID 0000.0001)         System time:  2.00000000000000178E-002
(PID.TID 0000.0001)     Wall clock time:   31.816453695297241
(PID.TID 0000.0001)          No. starts:          40
(PID.TID 0000.0001)           No. stops:          40
(PID.TID 0000.0001)   Seconds in section "UPDATE_R_STAR       [FORWARD_STEP]":
(PID.TID 0000.0001)           User time:   2.0600000000000449
(PID.TID 0000.0001)         System time:   0.0000000000000000
(PID.TID 0000.0001)     Wall clock time:   2.0709500312805176
(PID.TID 0000.0001)          No. starts:          40
(PID.TID 0000.0001)           No. stops:          40
(PID.TID 0000.0001)   Seconds in section "UPDATE_CG2D         [FORWARD_STEP]":
(PID.TID 0000.0001)           User time:  0.81000000000000227
(PID.TID 0000.0001)         System time:   0.0000000000000000
(PID.TID 0000.0001)     Wall clock time:  0.78622508049011230
(PID.TID 0000.0001)          No. starts:          40
(PID.TID 0000.0001)           No. stops:          40
(PID.TID 0000.0001)   Seconds in section "SOLVE_FOR_PRESSURE  [FORWARD_STEP]":
(PID.TID 0000.0001)           User time:   2.6099999999999710
(PID.TID 0000.0001)         System time:   0.0000000000000000
(PID.TID 0000.0001)     Wall clock time:   2.6792593002319336
(PID.TID 0000.0001)          No. starts:          40
(PID.TID 0000.0001)           No. stops:          40
(PID.TID 0000.0001)   Seconds in section "MOM_CORRECTION_STEP [FORWARD_STEP]":
(PID.TID 0000.0001)           User time:   14.590000000000018
(PID.TID 0000.0001)         System time:  1.00000000000000089E-002
(PID.TID 0000.0001)     Wall clock time:   14.608472347259521
(PID.TID 0000.0001)          No. starts:          40
(PID.TID 0000.0001)           No. stops:          40
(PID.TID 0000.0001)   Seconds in section "SHAP_FILT_UV       [MOM_CORR_STEP]":
(PID.TID 0000.0001)           User time:   13.660000000000011
(PID.TID 0000.0001)         System time:  1.00000000000000089E-002
(PID.TID 0000.0001)     Wall clock time:   13.696609020233154
(PID.TID 0000.0001)          No. starts:          40
(PID.TID 0000.0001)           No. stops:          40
(PID.TID 0000.0001)   Seconds in section "INTEGR_CONTINUITY   [FORWARD_STEP]":
(PID.TID 0000.0001)           User time:   2.4600000000000080
(PID.TID 0000.0001)         System time:   0.0000000000000000
(PID.TID 0000.0001)     Wall clock time:   2.4582824707031250
(PID.TID 0000.0001)          No. starts:          40
(PID.TID 0000.0001)           No. stops:          40
(PID.TID 0000.0001)   Seconds in section "CALC_R_STAR         [FORWARD_STEP]":
(PID.TID 0000.0001)           User time:  0.18999999999996930
(PID.TID 0000.0001)         System time:   0.0000000000000000
(PID.TID 0000.0001)     Wall clock time:  0.21032667160034180
(PID.TID 0000.0001)          No. starts:          40
(PID.TID 0000.0001)           No. stops:          40
(PID.TID 0000.0001)   Seconds in section "BLOCKING_EXCHANGES  [FORWARD_STEP]":
(PID.TID 0000.0001)           User time:   1.8599999999999568
(PID.TID 0000.0001)         System time:   0.0000000000000000
(PID.TID 0000.0001)     Wall clock time:   1.8565871715545654
(PID.TID 0000.0001)          No. starts:          80
(PID.TID 0000.0001)           No. stops:          80
(PID.TID 0000.0001)   Seconds in section "THERMODYNAMICS      [FORWARD_STEP]":
(PID.TID 0000.0001)           User time:   28.219999999999999
(PID.TID 0000.0001)         System time:  1.00000000000000089E-002
(PID.TID 0000.0001)     Wall clock time:   28.329705715179443
(PID.TID 0000.0001)          No. starts:          40
(PID.TID 0000.0001)           No. stops:          40
(PID.TID 0000.0001)   Seconds in section "TRC_CORRECTION_STEP [FORWARD_STEP]":
(PID.TID 0000.0001)           User time:   6.0399999999999778
(PID.TID 0000.0001)         System time:   0.0000000000000000
(PID.TID 0000.0001)     Wall clock time:   6.0769176483154297
(PID.TID 0000.0001)          No. starts:          40
(PID.TID 0000.0001)           No. stops:          40
(PID.TID 0000.0001)   Seconds in section "SHAP_FILT_TS       [TRC_CORR_STEP]":
(PID.TID 0000.0001)           User time:   5.5600000000000023
(PID.TID 0000.0001)         System time:   0.0000000000000000
(PID.TID 0000.0001)     Wall clock time:   5.6033353805541992
(PID.TID 0000.0001)          No. starts:          40
(PID.TID 0000.0001)           No. stops:          40
(PID.TID 0000.0001)   Seconds in section "MONITOR             [FORWARD_STEP]":
(PID.TID 0000.0001)           User time:   14.610000000000042
(PID.TID 0000.0001)         System time:   0.0000000000000000
(PID.TID 0000.0001)     Wall clock time:   14.636763095855713
(PID.TID 0000.0001)          No. starts:          40
(PID.TID 0000.0001)           No. stops:          40
(PID.TID 0000.0001)   Seconds in section "DO_THE_MODEL_IO     [FORWARD_STEP]":
(PID.TID 0000.0001)           User time:  6.99999999999931788E-002
(PID.TID 0000.0001)         System time:  1.00000000000000089E-002
(PID.TID 0000.0001)     Wall clock time:  7.45754241943359375E-002
(PID.TID 0000.0001)          No. starts:          40
(PID.TID 0000.0001)           No. stops:          40
(PID.TID 0000.0001)   Seconds in section "DO_WRITE_PICKUP     [FORWARD_STEP]":
(PID.TID 0000.0001)           User time:  9.00000000000034106E-002
(PID.TID 0000.0001)         System time:  2.00000000000000178E-002
(PID.TID 0000.0001)     Wall clock time:  0.11007094383239746
(PID.TID 0000.0001)          No. starts:          40
(PID.TID 0000.0001)           No. stops:          40
(PID.TID 0000.0001) // ======================================================
(PID.TID 0000.0001) // Tile <-> Tile communication statistics
(PID.TID 0000.0001) // ======================================================
(PID.TID 0000.0001) // o Tile number: 000001
(PID.TID 0000.0001) //         No. X exchanges =              0
(PID.TID 0000.0001) //            Max. X spins =              0
(PID.TID 0000.0001) //            Min. X spins =     1000000000
(PID.TID 0000.0001) //          Total. X spins =              0
(PID.TID 0000.0001) //            Avg. X spins =       0.00E+00
(PID.TID 0000.0001) //         No. Y exchanges =              0
(PID.TID 0000.0001) //            Max. Y spins =              0
(PID.TID 0000.0001) //            Min. Y spins =     1000000000
(PID.TID 0000.0001) //          Total. Y spins =              0
(PID.TID 0000.0001) //            Avg. Y spins =       0.00E+00
(PID.TID 0000.0001) // o Tile number: 000002
(PID.TID 0000.0001) //         No. X exchanges =              0
(PID.TID 0000.0001) //            Max. X spins =              0
(PID.TID 0000.0001) //            Min. X spins =     1000000000
(PID.TID 0000.0001) //          Total. X spins =              0
(PID.TID 0000.0001) //            Avg. X spins =       0.00E+00
(PID.TID 0000.0001) //         No. Y exchanges =              0
(PID.TID 0000.0001) //            Max. Y spins =              0
(PID.TID 0000.0001) //            Min. Y spins =     1000000000
(PID.TID 0000.0001) //          Total. Y spins =              0
(PID.TID 0000.0001) //            Avg. Y spins =       0.00E+00
(PID.TID 0000.0001) // o Tile number: 000003
(PID.TID 0000.0001) //         No. X exchanges =              0
(PID.TID 0000.0001) //            Max. X spins =              0
(PID.TID 0000.0001) //            Min. X spins =     1000000000
(PID.TID 0000.0001) //          Total. X spins =              0
(PID.TID 0000.0001) //            Avg. X spins =       0.00E+00
(PID.TID 0000.0001) //         No. Y exchanges =              0
(PID.TID 0000.0001) //            Max. Y spins =              0
(PID.TID 0000.0001) //            Min. Y spins =     1000000000
(PID.TID 0000.0001) //          Total. Y spins =              0
(PID.TID 0000.0001) //            Avg. Y spins =       0.00E+00
(PID.TID 0000.0001) // o Tile number: 000004
(PID.TID 0000.0001) //         No. X exchanges =              0
(PID.TID 0000.0001) //            Max. X spins =              0
(PID.TID 0000.0001) //            Min. X spins =     1000000000
(PID.TID 0000.0001) //          Total. X spins =              0
(PID.TID 0000.0001) //            Avg. X spins =       0.00E+00
(PID.TID 0000.0001) //         No. Y exchanges =              0
(PID.TID 0000.0001) //            Max. Y spins =              0
(PID.TID 0000.0001) //            Min. Y spins =     1000000000
(PID.TID 0000.0001) //          Total. Y spins =              0
(PID.TID 0000.0001) //            Avg. Y spins =       0.00E+00
(PID.TID 0000.0001) // o Tile number: 000005
(PID.TID 0000.0001) //         No. X exchanges =              0
(PID.TID 0000.0001) //            Max. X spins =              0
(PID.TID 0000.0001) //            Min. X spins =     1000000000
(PID.TID 0000.0001) //          Total. X spins =              0
(PID.TID 0000.0001) //            Avg. X spins =       0.00E+00
(PID.TID 0000.0001) //         No. Y exchanges =              0
(PID.TID 0000.0001) //            Max. Y spins =              0
(PID.TID 0000.0001) //            Min. Y spins =     1000000000
(PID.TID 0000.0001) //          Total. Y spins =              0
(PID.TID 0000.0001) //            Avg. Y spins =       0.00E+00
(PID.TID 0000.0001) // o Tile number: 000006
(PID.TID 0000.0001) //         No. X exchanges =              0
(PID.TID 0000.0001) //            Max. X spins =              0
(PID.TID 0000.0001) //            Min. X spins =     1000000000
(PID.TID 0000.0001) //          Total. X spins =              0
(PID.TID 0000.0001) //            Avg. X spins =       0.00E+00
(PID.TID 0000.0001) //         No. Y exchanges =              0
(PID.TID 0000.0001) //            Max. Y spins =              0
(PID.TID 0000.0001) //            Min. Y spins =     1000000000
(PID.TID 0000.0001) //          Total. Y spins =              0
(PID.TID 0000.0001) //            Avg. Y spins =       0.00E+00
(PID.TID 0000.0001) // o Thread number: 000001
(PID.TID 0000.0001) //            No. barriers =          17556
(PID.TID 0000.0001) //      Max. barrier spins =              1
(PID.TID 0000.0001) //      Min. barrier spins =              1
(PID.TID 0000.0001) //     Total barrier spins =          17556
(PID.TID 0000.0001) //      Avg. barrier spins =       1.00E+00
PROGRAM MAIN: Execution ended Normally
