(PID.TID 0000.0001) 
(PID.TID 0000.0001) // ======================================================
(PID.TID 0000.0001) //                      MITgcm UV
(PID.TID 0000.0001) //                      =========
(PID.TID 0000.0001) // ======================================================
(PID.TID 0000.0001) // execution environment starting up...
(PID.TID 0000.0001) 
(PID.TID 0000.0001) // MITgcmUV version:  checkpoint66i
(PID.TID 0000.0001) // Build user:        jmc
(PID.TID 0000.0001) // Build host:        baudelaire
(PID.TID 0000.0001) // Build date:        Sat Aug 12 18:29:17 EDT 2017
(PID.TID 0000.0001) 
(PID.TID 0000.0001) // =======================================================
(PID.TID 0000.0001) // Execution Environment parameter file "eedata"
(PID.TID 0000.0001) // =======================================================
(PID.TID 0000.0001) ># Example "eedata" file
(PID.TID 0000.0001) ># Lines beginning "#" are comments
(PID.TID 0000.0001) ># nTx - No. threads per process in X
(PID.TID 0000.0001) ># nTy - No. threads per process in Y
(PID.TID 0000.0001) > &EEPARMS
(PID.TID 0000.0001) > useCoupler=.TRUE.,
(PID.TID 0000.0001) > useCubedSphereExchange=.TRUE.,
(PID.TID 0000.0001) >#debugMode=.TRUE.,
(PID.TID 0000.0001) > nTx=1,
(PID.TID 0000.0001) > nTy=1,
(PID.TID 0000.0001) > /
(PID.TID 0000.0001) ># Note: Some systems use & as the namelist terminator (as shown here).
(PID.TID 0000.0001) >#       Other systems use a / character.
(PID.TID 0000.0001) 
(PID.TID 0000.0001) // =======================================================
(PID.TID 0000.0001) // Computational Grid Specification ( see files "SIZE.h" )
(PID.TID 0000.0001) //                                  ( and "eedata"       )
(PID.TID 0000.0001) // =======================================================
(PID.TID 0000.0001)      nPx =    1 ; /* No. processes in X */
(PID.TID 0000.0001)      nPy =    1 ; /* No. processes in Y */
(PID.TID 0000.0001)      nSx =    6 ; /* No. tiles in X per process */
(PID.TID 0000.0001)      nSy =    1 ; /* No. tiles in Y per process */
(PID.TID 0000.0001)      sNx =   32 ; /* Tile size in X */
(PID.TID 0000.0001)      sNy =   32 ; /* Tile size in Y */
(PID.TID 0000.0001)      OLx =    4 ; /* Tile overlap distance in X */
(PID.TID 0000.0001)      OLy =    4 ; /* Tile overlap distance in Y */
(PID.TID 0000.0001)      nTx =    1 ; /* No. threads in X per process */
(PID.TID 0000.0001)      nTy =    1 ; /* No. threads in Y per process */
(PID.TID 0000.0001)       Nr =   26 ; /* No. levels in the vertical   */
(PID.TID 0000.0001)       Nx =  192 ; /* Total domain size in X ( = nPx*nSx*sNx ) */
(PID.TID 0000.0001)       Ny =   32 ; /* Total domain size in Y ( = nPy*nSy*sNy ) */
(PID.TID 0000.0001)   nTiles =    6 ; /* Total no. tiles per process ( = nSx*nSy ) */
(PID.TID 0000.0001)   nProcs =    1 ; /* Total no. processes ( = nPx*nPy ) */
(PID.TID 0000.0001) nThreads =    1 ; /* Total no. threads per process ( = nTx*nTy ) */
(PID.TID 0000.0001) usingMPI =    T ; /* Flag used to control whether MPI is in use */
(PID.TID 0000.0001)                   /*  note: To execute a program with MPI calls */
(PID.TID 0000.0001)                   /*  it must be launched appropriately e.g     */
(PID.TID 0000.0001)                   /*  "mpirun -np 64 ......"                    */
(PID.TID 0000.0001) useCoupler=    T ;/* Flag used to control communications with   */
(PID.TID 0000.0001)                   /*  other model components, through a coupler */
(PID.TID 0000.0001) debugMode =    F ; /* print debug msg. (sequence of S/R calls)  */
(PID.TID 0000.0001) printMapIncludesZeros=    F ; /* print zeros in Std.Output maps */
(PID.TID 0000.0001) maxLengthPrt1D=   65 /* maxLength of 1D array printed to StdOut */
(PID.TID 0000.0001) 
(PID.TID 0000.0001) ======= Starting MPI parallel Run =========
(PID.TID 0000.0001)  My Processor Name (len: 10 ) = baudelaire
(PID.TID 0000.0001)  Located at (  0,  0) on processor grid (0:  0,0:  0)
(PID.TID 0000.0001)  Origin at  (     1,     1) on global grid (1:   192,1:    32)
(PID.TID 0000.0001)  North neighbor = processor 0000
(PID.TID 0000.0001)  South neighbor = processor 0000
(PID.TID 0000.0001)   East neighbor = processor 0000
(PID.TID 0000.0001)   West neighbor = processor 0000
(PID.TID 0000.0001) // ======================================================
(PID.TID 0000.0001) // Mapping of tiles to threads
(PID.TID 0000.0001) // ======================================================
(PID.TID 0000.0001) // -o- Thread   1, tiles (   1:   6,   1:   1)
(PID.TID 0000.0001) 
(PID.TID 0000.0001) W2_READPARMS: file data.exch2 not found
(PID.TID 0000.0001) => use W2_EXCH2 default: regular 6-facets Cube
(PID.TID 0000.0001) W2_useE2ioLayOut=    T ;/* T: use Exch2 glob IO map; F: use model default */
(PID.TID 0000.0001) W2_mapIO        =  -1 ; /* select option for Exch2 global-IO map */
(PID.TID 0000.0001) W2_printMsg     =  -1 ; /* select option for printing information */
(PID.TID 0000.0001) ===== Start setting W2 TOPOLOGY:
(PID.TID 0000.0001)  write to log-file: w2_tile_topology.0000.log
(PID.TID 0000.0001) =====       setting W2 TOPOLOGY: Done
(PID.TID 0000.0001) 
(PID.TID 0000.0001)  INI_PARMS: opening model parameter file "data"
(PID.TID 0000.0001)  OPEN_COPY_DATA_FILE: opening file data
(PID.TID 0000.0001) // =======================================================
(PID.TID 0000.0001) // Parameter file "data"
(PID.TID 0000.0001) // =======================================================
(PID.TID 0000.0001) ># ====================
(PID.TID 0000.0001) ># | Model parameters |
(PID.TID 0000.0001) ># ====================
(PID.TID 0000.0001) >#
(PID.TID 0000.0001) ># Continuous equation parameters
(PID.TID 0000.0001) > &PARM01
(PID.TID 0000.0001) >#- mean theta* from H&S, isothermal (T=200.K) above p=150.mb:
(PID.TID 0000.0001) > tRef= 295.1, 295.2, 295.4, 295.6, 296.0, 296.6, 297.3, 298.2, 299.3, 300.6,
(PID.TID 0000.0001) >       302.4, 305.9, 311.8, 321.8, 338.3, 359.5, 382.8, 408.6, 437.5, 470.6,
(PID.TID 0000.0001) >       509.2, 555.8, 614.9, 696.3, 827.2, 1153.6,
(PID.TID 0000.0001) >#tRef=26*280.,
(PID.TID 0000.0001) > sRef=26*0.,
(PID.TID 0000.0001) > viscAr=0.E1,
(PID.TID 0000.0001) > viscAh=0.E6,
(PID.TID 0000.0001) > viscA4=0.E17,
(PID.TID 0000.0001) > no_slip_sides=.FALSE.,
(PID.TID 0000.0001) > no_slip_bottom=.FALSE.,
(PID.TID 0000.0001) > diffKhT=0.E3,
(PID.TID 0000.0001) > diffKrT=0.,
(PID.TID 0000.0001) > diffK4T=0.E17,
(PID.TID 0000.0001) > diffKrS=0.E2,
(PID.TID 0000.0001) > diffKhS=0.E3,
(PID.TID 0000.0001) > diffK4S=0.E17,
(PID.TID 0000.0001) > buoyancyRelation='ATMOSPHERIC',
(PID.TID 0000.0001) > eosType='IDEALG',
(PID.TID 0000.0001) > atm_Cp=1004.64,
(PID.TID 0000.0001) > atm_Rq=0.6078,
(PID.TID 0000.0001) > integr_GeoPot=2,
(PID.TID 0000.0001) > selectFindRoSurf=1,
(PID.TID 0000.0001) > gravity=9.80,
(PID.TID 0000.0001) > rigidLid=.FALSE.,
(PID.TID 0000.0001) > implicitFreeSurface=.TRUE.,
(PID.TID 0000.0001) > exactConserv=.TRUE.,
(PID.TID 0000.0001) > select_rStar=2,
(PID.TID 0000.0001) > nonlinFreeSurf=4,
(PID.TID 0000.0001) > hFacInf=0.2,
(PID.TID 0000.0001) > hFacSup=2.0,
(PID.TID 0000.0001) > hFacMin=1.0,
(PID.TID 0000.0001) > uniformLin_PhiSurf=.FALSE.,
(PID.TID 0000.0001) > vectorInvariantMomentum=.TRUE.,
(PID.TID 0000.0001) > useAbsVorticity=.TRUE.,
(PID.TID 0000.0001) > selectVortScheme=3,
(PID.TID 0000.0001) > selectKEscheme=3,
(PID.TID 0000.0001) > addFrictionHeating=.TRUE.,
(PID.TID 0000.0001) >#tempAdvScheme=77,
(PID.TID 0000.0001) > saltAdvScheme=77,
(PID.TID 0000.0001) > staggerTimeStep=.TRUE.,
(PID.TID 0000.0001) > readBinaryPrec=64,
(PID.TID 0000.0001) > writeBinaryPrec=64,
(PID.TID 0000.0001) >#globalFiles=.TRUE.,
(PID.TID 0000.0001) >#useSingleCpuIO=.TRUE.,
(PID.TID 0000.0001) > debugLevel=2,
(PID.TID 0000.0001) > plotLevel=0,
(PID.TID 0000.0001) > /
(PID.TID 0000.0001) >
(PID.TID 0000.0001) ># Elliptic solver parameters
(PID.TID 0000.0001) > &PARM02
(PID.TID 0000.0001) > cg2dMaxIters=200,
(PID.TID 0000.0001) > cg2dTargetResWunit=1.E-17,
(PID.TID 0000.0001) > /
(PID.TID 0000.0001) >
(PID.TID 0000.0001) ># Time stepping parameters
(PID.TID 0000.0001) > &PARM03
(PID.TID 0000.0001) > nIter0=0,
(PID.TID 0000.0001) ># 10.yrs or 8.yrs:
(PID.TID 0000.0001) >#nTimeSteps=864000,
(PID.TID 0000.0001) > nTimeSteps=691200,
(PID.TID 0000.0001) >#endTime=311040000.,
(PID.TID 0000.0001) >#endTime=5184000.,
(PID.TID 0000.0001) > deltaT=360.,
(PID.TID 0000.0001) > abEps=0.1,
(PID.TID 0000.0001) > forcing_In_AB=.FALSE.,
(PID.TID 0000.0001) > cAdjFreq=0.,
(PID.TID 0000.0001) >#- long run (> 1.yr):
(PID.TID 0000.0001) >#pChkptFreq =311040000.,
(PID.TID 0000.0001) >#chkptFreq  = 77760000.,
(PID.TID 0000.0001) > pChkptFreq =248832000.,
(PID.TID 0000.0001) > chkptFreq  = 62208000.,
(PID.TID 0000.0001) > dumpFreq   = 31104000.,
(PID.TID 0000.0001) > monitorFreq= 2592000.,
(PID.TID 0000.0001) >#- short run (~ months):
(PID.TID 0000.0001) >#pChkptFreq = 2592000.,
(PID.TID 0000.0001) >#chkptFreq  =  864000.,
(PID.TID 0000.0001) >#dumpFreq   =  432000.,
(PID.TID 0000.0001) >#monitorFreq=  43200.,
(PID.TID 0000.0001) >#- short test:
(PID.TID 0000.0001) > nTimeSteps=40,
(PID.TID 0000.0001) >#dumpFreq   =1.,
(PID.TID 0000.0001) > monitorFreq=1.,
(PID.TID 0000.0001) > /
(PID.TID 0000.0001) >
(PID.TID 0000.0001) ># Gridding parameters
(PID.TID 0000.0001) > &PARM04
(PID.TID 0000.0001) > usingCurvilinearGrid=.TRUE.,
(PID.TID 0000.0001) > horizGridFile='dxC1_dXYa',
(PID.TID 0000.0001) > radius_fromHorizGrid=6370.E3,
(PID.TID 0000.0001) >#delR=25*40.E2,
(PID.TID 0000.0001) > delR= 1500., 2122., 3000., 4242., 6000., 7800., 9100., 9400., 9280., 8400.,
(PID.TID 0000.0001) >       6980., 5800., 4820., 4004., 3328., 2766., 2298., 1910., 1586., 1318.,
(PID.TID 0000.0001) >       1096.,  910.,  756.,  628.,  522.,  434.,
(PID.TID 0000.0001) > /
(PID.TID 0000.0001) >
(PID.TID 0000.0001) ># Input datasets
(PID.TID 0000.0001) > &PARM05
(PID.TID 0000.0001) > hydrogThetaFile='ini_theta_26l.bin',
(PID.TID 0000.0001) > hydrogSaltFile ='ini_specQ_26l.bin',
(PID.TID 0000.0001) > /
(PID.TID 0000.0001) 
(PID.TID 0000.0001)  INI_PARMS ; starts to read PARM01
(PID.TID 0000.0001)  INI_PARMS ; read PARM01 : OK
(PID.TID 0000.0001)  INI_PARMS ; starts to read PARM02
(PID.TID 0000.0001)  INI_PARMS ; read PARM02 : OK
(PID.TID 0000.0001)  INI_PARMS ; starts to read PARM03
(PID.TID 0000.0001)  INI_PARMS ; read PARM03 : OK
(PID.TID 0000.0001)  INI_PARMS ; starts to read PARM04
(PID.TID 0000.0001)  INI_PARMS ; read PARM04 : OK
(PID.TID 0000.0001)  INI_PARMS ; starts to read PARM05
(PID.TID 0000.0001)  INI_PARMS ; read PARM05 : OK
(PID.TID 0000.0001)  INI_PARMS: finished reading file "data"
(PID.TID 0000.0001)  PACKAGES_BOOT: opening data.pkg
(PID.TID 0000.0001)  OPEN_COPY_DATA_FILE: opening file data.pkg
(PID.TID 0000.0001) // =======================================================
(PID.TID 0000.0001) // Parameter file "data.pkg"
(PID.TID 0000.0001) // =======================================================
(PID.TID 0000.0001) ># Packages
(PID.TID 0000.0001) > &PACKAGES
(PID.TID 0000.0001) > useSHAP_FILT=.TRUE.,
(PID.TID 0000.0001) > useDiagnostics=.TRUE.,
(PID.TID 0000.0001) > useAtm_Phys=.TRUE.,
(PID.TID 0000.0001) >#useMNC = .TRUE.,
(PID.TID 0000.0001) > /
(PID.TID 0000.0001) 
(PID.TID 0000.0001)  PACKAGES_BOOT: finished reading data.pkg
(PID.TID 0000.0001)  PACKAGES_BOOT: On/Off package Summary
 --------  pkgs with a standard "usePKG" On/Off switch in "data.pkg":  --------
 pkg/shap_filt            compiled   and   used ( useSHAP_FILT             = T )
 pkg/atm_phys             compiled   and   used ( useAtm_Phys              = T )
 pkg/diagnostics          compiled   and   used ( useDiagnostics           = T )
 -------- pkgs without standard "usePKG" On/Off switch in "data.pkg":  --------
 pkg/generic_advdiff      compiled   and   used ( useGAD                   = T )
 pkg/mom_common           compiled   and   used ( momStepping              = T )
 pkg/mom_vecinv           compiled   and   used ( +vectorInvariantMomentum = T )
 pkg/mom_fluxform         compiled but not used ( & not vectorInvariantMom = F )
 pkg/monitor              compiled   and   used ( monitorFreq > 0.         = T )
 pkg/debug                compiled but not used ( debugMode                = F )
 pkg/compon_communic      compiled   and   used ( useCoupler               = T )
 pkg/atm_compon_interf    compiled   and   used ( useCoupler               = T )
 pkg/exch2                compiled   and   used
 pkg/rw                   compiled   and   used
 pkg/mdsio                compiled   and   used
(PID.TID 0000.0001)  PACKAGES_BOOT: End of package Summary
(PID.TID 0000.0001) 
 CPL_IMPORT_CPLPARMS: Recv parBuf=     0     0     0     0     0     0
(PID.TID 0000.0001)  SHAP_FILT_READPARMS: opening data.shap
(PID.TID 0000.0001)  OPEN_COPY_DATA_FILE: opening file data.shap
(PID.TID 0000.0001) // =======================================================
(PID.TID 0000.0001) // Parameter file "data.shap"
(PID.TID 0000.0001) // =======================================================
(PID.TID 0000.0001) ># Shapiro Filter parameters
(PID.TID 0000.0001) > &SHAP_PARM01
(PID.TID 0000.0001) > shap_filt_uvStar=.FALSE.,
(PID.TID 0000.0001) > shap_filt_TrStagg=.TRUE.,
(PID.TID 0000.0001) > Shap_funct=2,
(PID.TID 0000.0001) > nShapT=4,
(PID.TID 0000.0001) > nShapS=0,
(PID.TID 0000.0001) > nShapUV=4,
(PID.TID 0000.0001) > nShapTrPhys=1,
(PID.TID 0000.0001) > nShapUVPhys=0,
(PID.TID 0000.0001) > Shap_TrLength=140000.,
(PID.TID 0000.0001) >#Shap_TrLength=115000.,
(PID.TID 0000.0001) >#Shap_uvLength=110000.,
(PID.TID 0000.0001) >#Shap_Trtau=5400.,
(PID.TID 0000.0001) >#Shap_uvtau=5400.,
(PID.TID 0000.0001) > Shap_Trtau=1800.,
(PID.TID 0000.0001) > Shap_uvtau= 900.,
(PID.TID 0000.0001) > /
(PID.TID 0000.0001) >
(PID.TID 0000.0001) 
(PID.TID 0000.0001)  SHAP_FILT_READPARMS: finished reading data.shap
(PID.TID 0000.0001) Shap_funct =   /* select Shapiro filter function */
(PID.TID 0000.0001)                       2
(PID.TID 0000.0001)     ;
(PID.TID 0000.0001) nShapT =   /* power of Shapiro filter for Temperat */
(PID.TID 0000.0001)                       4
(PID.TID 0000.0001)     ;
(PID.TID 0000.0001) nShapS =   /* power of Shapiro filter for Salinity */
(PID.TID 0000.0001)                       0
(PID.TID 0000.0001)     ;
(PID.TID 0000.0001) nShapUV =   /* power of Shapiro filter for momentum */
(PID.TID 0000.0001)                       4
(PID.TID 0000.0001)     ;
(PID.TID 0000.0001) shap_filt_uvStar = /* apply filter before Press. Solver */
(PID.TID 0000.0001)                   F
(PID.TID 0000.0001)     ;
(PID.TID 0000.0001) shap_filt_TrStagg = /* filter T,S before calc PhiHyd (staggerTimeStep) */
(PID.TID 0000.0001)                   T
(PID.TID 0000.0001)     ;
(PID.TID 0000.0001) Shap_alwaysExchUV = /* always exch(U,V)    nShapUV times*/
(PID.TID 0000.0001)                   F
(PID.TID 0000.0001)     ;
(PID.TID 0000.0001) Shap_alwaysExchTr = /* always exch(Tracer) nShapTr times*/
(PID.TID 0000.0001)                   F
(PID.TID 0000.0001)     ;
(PID.TID 0000.0001) nShapTrPhys =   /* power of physical-space filter (Tracer) */
(PID.TID 0000.0001)                       1
(PID.TID 0000.0001)     ;
(PID.TID 0000.0001) nShapUVPhys =   /* power of physical-space filter (Momentum) */
(PID.TID 0000.0001)                       0
(PID.TID 0000.0001)     ;
(PID.TID 0000.0001) Shap_Trtau =   /* time scale of Shapiro filter (Tracer) */
(PID.TID 0000.0001)                 1.800000000000000E+03
(PID.TID 0000.0001)     ;
(PID.TID 0000.0001) Shap_TrLength =   /* Length scale of Shapiro filter (Tracer) */
(PID.TID 0000.0001)                 1.400000000000000E+05
(PID.TID 0000.0001)     ;
(PID.TID 0000.0001) Shap_uvtau =   /* time scale of Shapiro filter (Momentum) */
(PID.TID 0000.0001)                 9.000000000000000E+02
(PID.TID 0000.0001)     ;
(PID.TID 0000.0001) Shap_uvLength =   /* Length scale of Shapiro filter (Momentum) */
(PID.TID 0000.0001)                 0.000000000000000E+00
(PID.TID 0000.0001)     ;
(PID.TID 0000.0001) Shap_noSlip =  /* No-slip parameter (0=Free-slip ; 1=No-slip)*/
(PID.TID 0000.0001)                 0.000000000000000E+00
(PID.TID 0000.0001)     ;
(PID.TID 0000.0001) Shap_diagFreq =   /* Frequency^-1 for diagnostic output (s)*/
(PID.TID 0000.0001)                 0.000000000000000E+00
(PID.TID 0000.0001)     ;
(PID.TID 0000.0001) ATM_PHYS_READPARMS: opening data.atm_phys
(PID.TID 0000.0001)  OPEN_COPY_DATA_FILE: opening file data.atm_phys
(PID.TID 0000.0001) // =======================================================
(PID.TID 0000.0001) // Parameter file "data.atm_phys"
(PID.TID 0000.0001) // =======================================================
(PID.TID 0000.0001) >#
(PID.TID 0000.0001) > &ATM_PHYS_PARM01
(PID.TID 0000.0001) >#atmPhys_addTendT=.FALSE.,
(PID.TID 0000.0001) >#atmPhys_addTendS=.FALSE.,
(PID.TID 0000.0001) >#atmPhys_addTendU=.FALSE.,
(PID.TID 0000.0001) >#atmPhys_addTendV=.FALSE.,
(PID.TID 0000.0001) > atmPhys_tauDampUV = 86400.,
(PID.TID 0000.0001) > atmPhys_dampUVfac = 20*0., 0.125, 0.25, 0.5, 1., 2., 4.,
(PID.TID 0000.0001) >#- initial SST file:
(PID.TID 0000.0001) > atmPhys_SSTFile='SST_symEx3.bin',
(PID.TID 0000.0001) >#- Q-flux file:
(PID.TID 0000.0001) >#atmPhys_QflxFile='Qflux_w90.bin',
(PID.TID 0000.0001) >#- update SST (default = False = keep the same SST):
(PID.TID 0000.0001) >#atmPhys_stepSST=.TRUE.,
(PID.TID 0000.0001) > /
(PID.TID 0000.0001) 
(PID.TID 0000.0001) ATM_PHYS_READPARMS: finished reading data.atm_phys
(PID.TID 0000.0001)  DIAGNOSTICS_READPARMS: opening data.diagnostics
(PID.TID 0000.0001)  OPEN_COPY_DATA_FILE: opening file data.diagnostics
(PID.TID 0000.0001) // =======================================================
(PID.TID 0000.0001) // Parameter file "data.diagnostics"
(PID.TID 0000.0001) // =======================================================
(PID.TID 0000.0001) ># Diagnostic Package Choices
(PID.TID 0000.0001) >#--------------------
(PID.TID 0000.0001) >#  dumpAtLast (logical): always write output at the end of simulation (default=F)
(PID.TID 0000.0001) >#  diag_mnc   (logical): write to NetCDF files (default=useMNC)
(PID.TID 0000.0001) >#--for each output-stream:
(PID.TID 0000.0001) >#  fileName(n) : prefix of the output file name (max 80c long) for outp.stream n
(PID.TID 0000.0001) >#  frequency(n):< 0 : write snap-shot output every |frequency| seconds
(PID.TID 0000.0001) >#               > 0 : write time-average output every frequency seconds
(PID.TID 0000.0001) >#  timePhase(n)     : write at time = timePhase + multiple of |frequency|
(PID.TID 0000.0001) >#    averagingFreq  : frequency (in s) for periodic averaging interval
(PID.TID 0000.0001) >#    averagingPhase : phase     (in s) for periodic averaging interval
(PID.TID 0000.0001) >#    repeatCycle    : number of averaging intervals in 1 cycle
(PID.TID 0000.0001) >#  levels(:,n) : list of levels to write to file (Notes: declared as REAL)
(PID.TID 0000.0001) >#                when this entry is missing, select all common levels of this list
(PID.TID 0000.0001) >#  fields(:,n) : list of selected diagnostics fields (8.c) in outp.stream n
(PID.TID 0000.0001) >#                (see "available_diagnostics.log" file for the full list of diags)
(PID.TID 0000.0001) >#  missing_value(n) : missing value for real-type fields in output file "n"
(PID.TID 0000.0001) >#  fileFlags(n)     : specific code (8c string) for output file "n"
(PID.TID 0000.0001) >#--------------------
(PID.TID 0000.0001) > &DIAGNOSTICS_LIST
(PID.TID 0000.0001) ># dumpAtLast   = .TRUE.,
(PID.TID 0000.0001) ># diag_mnc     = .FALSE.,
(PID.TID 0000.0001) >#--
(PID.TID 0000.0001) >  fields(1:16,1) = 'ETAN    ','ETANSQ  ','DETADT2 ','AtPhCAPE','AtPhCnvP',
(PID.TID 0000.0001) >                   'AtPhLscP','AtPhSens','AtPhEvap','AtPhTauX','AtPhTauY',
(PID.TID 0000.0001) >                   'AtPh_SST','AtPhInSR','AtPhOLR ',
(PID.TID 0000.0001) >                   'AtPhNSSR','AtPhDSLR','AtPhUSLR',
(PID.TID 0000.0001) >   fileName(1) = 'surfDiag',
(PID.TID 0000.0001) ># fileFlags(1) = 'D       ',
(PID.TID 0000.0001) ># frequency(1) = 311040000.,
(PID.TID 0000.0001) >  frequency(1) = 6220800000.,
(PID.TID 0000.0001) >   averagingFreq(1) = 2592000.,
(PID.TID 0000.0001) >     repeatCycle(1) = 12,
(PID.TID 0000.0001) ># frequency(1) = 432000.,
(PID.TID 0000.0001) >  fields(1:20,2) = 'UVEL    ','VVEL    ','WVEL    ','THETA   ','SALT    ',
(PID.TID 0000.0001) >                   'UVELSQ  ','VVELSQ  ','WVELSQ  ','THETASQ ','SALTSQ  ',
(PID.TID 0000.0001) >                   'UVELMASS','VVELMASS','UV_VEL_C','RELHUM  ',
(PID.TID 0000.0001) >                   'ADVx_TH ','ADVy_TH ','ADVr_TH ',
(PID.TID 0000.0001) >                   'ADVx_SLT','ADVy_SLT','ADVr_SLT',
(PID.TID 0000.0001) >#                  'AtPhdTdt','AtPhdQdt','AtPhdUdt','AtPhdVdt',
(PID.TID 0000.0001) >#                  'AtPhdtTg','AtPhdtQg','AtPhDifT','AtPhDifM',
(PID.TID 0000.0001) >#                  'SHAP_dU ','MoistCor',
(PID.TID 0000.0001) >   fileName(2) = 'dynDiag',
(PID.TID 0000.0001) ># frequency(2) = 311040000.,
(PID.TID 0000.0001) >  frequency(2) = 6220800000.,
(PID.TID 0000.0001) >   averagingFreq(2) = 7776000.,
(PID.TID 0000.0001) >  averagingPhase(2) =-2592000.,
(PID.TID 0000.0001) >     repeatCycle(2) = 4,
(PID.TID 0000.0001) ># frequency(2) = 432000.,
(PID.TID 0000.0001) > /
(PID.TID 0000.0001) >
(PID.TID 0000.0001) >#--------------------
(PID.TID 0000.0001) ># Parameter for Diagnostics of per level statistics:
(PID.TID 0000.0001) >#--------------------
(PID.TID 0000.0001) >#  diagSt_mnc (logical): write stat-diags to NetCDF files (default=diag_mnc)
(PID.TID 0000.0001) >#  diagSt_regMaskFile : file containing the region-mask to read-in
(PID.TID 0000.0001) >#  nSetRegMskFile   : number of region-mask sets within the region-mask file
(PID.TID 0000.0001) >#  set_regMask(i)   : region-mask set-index that identifies the region "i"
(PID.TID 0000.0001) >#  val_regMask(i)   : region "i" identifier value in the region mask
(PID.TID 0000.0001) >#--for each output-stream:
(PID.TID 0000.0001) >#  stat_fName(n) : prefix of the output file name (max 80c long) for outp.stream n
(PID.TID 0000.0001) >#  stat_freq(n):< 0 : write snap-shot output every |stat_freq| seconds
(PID.TID 0000.0001) >#               > 0 : write time-average output every stat_freq seconds
(PID.TID 0000.0001) >#  stat_phase(n)    : write at time = stat_phase + multiple of |stat_freq|
(PID.TID 0000.0001) >#  stat_region(:,n) : list of "regions" (default: 1 region only=global)
(PID.TID 0000.0001) >#  stat_fields(:,n) : list of selected diagnostics fields (8.c) in outp.stream n
(PID.TID 0000.0001) >#                (see "available_diagnostics.log" file for the full list of diags)
(PID.TID 0000.0001) >#--------------------
(PID.TID 0000.0001) > &DIAG_STATIS_PARMS
(PID.TID 0000.0001) > stat_fields(1:11,1) = 'ETAN    ','THETA   ','SALT    ','RELHUM  ',
(PID.TID 0000.0001) >                       'UE_VEL_C','VN_VEL_C','WVEL    ',
(PID.TID 0000.0001) >                       'AtPhdTdt','AtPhdQdt','AtPhdUdt','AtPhdVdt',
(PID.TID 0000.0001) >  stat_fName(1) = 'dynStDiag',
(PID.TID 0000.0001) >   stat_freq(1) = 864000.,
(PID.TID 0000.0001) >#  stat_freq(1) = 43200.,
(PID.TID 0000.0001) >  stat_phase(1) = 0.,
(PID.TID 0000.0001) > stat_fields(1:7,2)  = 'AtPhDifT','AtPhDifM','AtPhDisH',
(PID.TID 0000.0001) >                       'AtPhdtTg','AtPhdtQg','SHAP_dKE','MoistCor',
(PID.TID 0000.0001) >  stat_fName(2) = 'diffStDiag',
(PID.TID 0000.0001) >   stat_freq(2) = 864000.,
(PID.TID 0000.0001) >#  stat_freq(2) = 43200.,
(PID.TID 0000.0001) ># stat_phase(2) = 0.,
(PID.TID 0000.0001) > stat_fields(1:13,3) = 'AtPhSens','AtPhEvap','AtPhTauX','AtPhTauY',
(PID.TID 0000.0001) >                       'AtPhCAPE','AtPhCnvP','AtPhLscP',
(PID.TID 0000.0001) >                       'AtPh_SST','AtPhInSR','AtPhOLR ',
(PID.TID 0000.0001) >                       'AtPhNSSR','AtPhDSLR','AtPhUSLR',
(PID.TID 0000.0001) >  stat_fName(3) = 'flxStDiag',
(PID.TID 0000.0001) >   stat_freq(3) = 864000.,
(PID.TID 0000.0001) >#  stat_freq(3) = 43200.,
(PID.TID 0000.0001) >  stat_phase(3) = 0.,
(PID.TID 0000.0001) > /
(PID.TID 0000.0001) >
(PID.TID 0000.0001) 
(PID.TID 0000.0001) S/R DIAGNOSTICS_READPARMS, read namelist "diagnostics_list": start
(PID.TID 0000.0001) S/R DIAGNOSTICS_READPARMS, read namelist "diagnostics_list": OK
(PID.TID 0000.0001) S/R DIAGNOSTICS_READPARMS, read namelist "DIAG_STATIS_PARMS": start
(PID.TID 0000.0001) S/R DIAGNOSTICS_READPARMS, read namelist "DIAG_STATIS_PARMS": OK
(PID.TID 0000.0001)  DIAGNOSTICS_READPARMS: global parameter summary:
(PID.TID 0000.0001)  dumpAtLast = /* always write time-ave diags at the end */
(PID.TID 0000.0001)                   F
(PID.TID 0000.0001)     ;
(PID.TID 0000.0001)  diag_mnc =   /* write NetCDF output files */
(PID.TID 0000.0001)                   F
(PID.TID 0000.0001)     ;
(PID.TID 0000.0001)  useMissingValue = /* put MissingValue where mask = 0 */
(PID.TID 0000.0001)                   F
(PID.TID 0000.0001)     ;
(PID.TID 0000.0001)  diagCG_maxIters = /* max number of iters in diag_cg2d */
(PID.TID 0000.0001)                     200
(PID.TID 0000.0001)     ;
(PID.TID 0000.0001)  diagCG_resTarget = /* residual target for diag_cg2d */
(PID.TID 0000.0001)                 1.000000000000000E-07
(PID.TID 0000.0001)     ;
(PID.TID 0000.0001)  diagCG_pcOffDFac = /* preconditioner off-diagonal factor */
(PID.TID 0000.0001)                 9.611687812379854E-01
(PID.TID 0000.0001)     ;
(PID.TID 0000.0001) -----------------------------------------------------
(PID.TID 0000.0001)  DIAGNOSTICS_READPARMS: active diagnostics summary:
(PID.TID 0000.0001) -----------------------------------------------------
(PID.TID 0000.0001) Creating Output Stream: surfDiag
(PID.TID 0000.0001) Output Frequency: 6220800000.000000 ; Phase:           0.000000
(PID.TID 0000.0001)  Averaging Freq.:    2592000.000000 , Phase:           0.000000 , Cycle:  12
(PID.TID 0000.0001)  missing value: -9.990000000000E+02
(PID.TID 0000.0001)  Levels:    will be set later
(PID.TID 0000.0001)  Fields:    ETAN     ETANSQ   DETADT2  AtPhCAPE AtPhCnvP AtPhLscP AtPhSens AtPhEvap AtPhTauX AtPhTauY
(PID.TID 0000.0001)  Fields:    AtPh_SST AtPhInSR AtPhOLR  AtPhNSSR AtPhDSLR AtPhUSLR
(PID.TID 0000.0001) Creating Output Stream: dynDiag
(PID.TID 0000.0001) Output Frequency: 6220800000.000000 ; Phase:           0.000000
(PID.TID 0000.0001)  Averaging Freq.:    7776000.000000 , Phase:    -2592000.000000 , Cycle:   4
(PID.TID 0000.0001)  missing value: -9.990000000000E+02
(PID.TID 0000.0001)  Levels:    will be set later
(PID.TID 0000.0001)  Fields:    UVEL     VVEL     WVEL     THETA    SALT     UVELSQ   VVELSQ   WVELSQ   THETASQ  SALTSQ
(PID.TID 0000.0001)  Fields:    UVELMASS VVELMASS UV_VEL_C RELHUM   ADVx_TH  ADVy_TH  ADVr_TH  ADVx_SLT ADVy_SLT ADVr_SLT
(PID.TID 0000.0001) -----------------------------------------------------
(PID.TID 0000.0001)  DIAGNOSTICS_READPARMS: statistics diags. summary:
(PID.TID 0000.0001) Creating Stats. Output Stream: dynStDiag
(PID.TID 0000.0001) Output Frequency:     864000.000000 ; Phase:           0.000000
(PID.TID 0000.0001)  Regions:   0
(PID.TID 0000.0001)  Fields:    ETAN     THETA    SALT     RELHUM   UE_VEL_C VN_VEL_C WVEL     AtPhdTdt AtPhdQdt AtPhdUdt
(PID.TID 0000.0001)  Fields:    AtPhdVdt
(PID.TID 0000.0001) Creating Stats. Output Stream: diffStDiag
(PID.TID 0000.0001) Output Frequency:     864000.000000 ; Phase:           0.000000
(PID.TID 0000.0001)  Regions:   0
(PID.TID 0000.0001)  Fields:    AtPhDifT AtPhDifM AtPhDisH AtPhdtTg AtPhdtQg SHAP_dKE MoistCor
(PID.TID 0000.0001) Creating Stats. Output Stream: flxStDiag
(PID.TID 0000.0001) Output Frequency:     864000.000000 ; Phase:           0.000000
(PID.TID 0000.0001)  Regions:   0
(PID.TID 0000.0001)  Fields:    AtPhSens AtPhEvap AtPhTauX AtPhTauY AtPhCAPE AtPhCnvP AtPhLscP AtPh_SST AtPhInSR AtPhOLR
(PID.TID 0000.0001)  Fields:    AtPhNSSR AtPhDSLR AtPhUSLR
(PID.TID 0000.0001) -----------------------------------------------------
(PID.TID 0000.0001) 
(PID.TID 0000.0001)  CPL_READPARMS: opening data.cpl
(PID.TID 0000.0001)  OPEN_COPY_DATA_FILE: opening file data.cpl
(PID.TID 0000.0001) // =======================================================
(PID.TID 0000.0001) // Parameter file "data.cpl"
(PID.TID 0000.0001) // =======================================================
(PID.TID 0000.0001) ># Coupling package parameters, ATM component:
(PID.TID 0000.0001) >#    cpl_oldPickup   :: restart from an old pickup (= until ckpt 59h)
(PID.TID 0000.0001) >#    useImportMxlD   :: True => use Imported Mix.Layer Detph from coupler
(PID.TID 0000.0001) >#    useImportSST    :: True => use the Imported SST from coupler
(PID.TID 0000.0001) >#    useImportSSS    :: True => use the Imported SSS from coupler
(PID.TID 0000.0001) >#    useImportVsq    :: True => use the Imported Surf. velocity^2
(PID.TID 0000.0001) >#    useImportThSIce :: True => use the Imported thSIce state var from coupler
(PID.TID 0000.0001) >#    useImportFlxCO2 :: True => use the Imported air-sea CO2 flux from coupler
(PID.TID 0000.0001) >#    cpl_atmSendFrq  :: Frequency^-1 for sending data to coupler (s)
(PID.TID 0000.0001) >#    maxNumberPrint  :: max number of printed Exp/Imp messages
(PID.TID 0000.0001) > &CPL_ATM_PARAM
(PID.TID 0000.0001) ># cpl_oldPickup  =.TRUE.,
(PID.TID 0000.0001) >  useImportMxlD  =.FALSE.,
(PID.TID 0000.0001) ># useImportSST   =.FALSE.,
(PID.TID 0000.0001) >  useImportSSS   =.FALSE.,
(PID.TID 0000.0001) >  useImportVsq   =.FALSE.,
(PID.TID 0000.0001) ># useImportThSIce=.FALSE.,
(PID.TID 0000.0001) ># useImportFlxCO2=.FALSE.,
(PID.TID 0000.0001) >  cpl_atmSendFrq = 2880.,
(PID.TID 0000.0001) > /
(PID.TID 0000.0001) 
(PID.TID 0000.0001)  CPL_READPARMS: finished reading data.cpl
(PID.TID 0000.0001) 
(PID.TID 0000.0001) // ===================================
(PID.TID 0000.0001) // Coupling set-up summary :
(PID.TID 0000.0001) // ===================================
(PID.TID 0000.0001) // -------
(PID.TID 0000.0001) // Coupler-exchange switch (received from coupler):
(PID.TID 0000.0001) atm_cplSequential = /* use Sequential Coupling Exchange on/off flag */
(PID.TID 0000.0001)                   F
(PID.TID 0000.0001)     ;
(PID.TID 0000.0001) atm_cplExch_RunOff = /* exchange RunOff fields with coupler on/off */
(PID.TID 0000.0001)                   F
(PID.TID 0000.0001)     ;
(PID.TID 0000.0001) atm_cplExch1W_sIce = /* 1-way exchange of seaice vars with coupler */
(PID.TID 0000.0001)                   F
(PID.TID 0000.0001)     ;
(PID.TID 0000.0001) atm_cplExch2W_sIce = /* 2-way exchange of ThSIce vars with coupler */
(PID.TID 0000.0001)                   F
(PID.TID 0000.0001)     ;
(PID.TID 0000.0001) atm_cplExch_SaltPl = /* exchange Salt-Plume fields with coupler */
(PID.TID 0000.0001)                   F
(PID.TID 0000.0001)     ;
(PID.TID 0000.0001) atm_cplExch_DIC    = /* exchange DIC    fields with coupler on/off */
(PID.TID 0000.0001)                   F
(PID.TID 0000.0001)     ;
(PID.TID 0000.0001) // -------
(PID.TID 0000.0001) // Coupler parameters (from local param file):
(PID.TID 0000.0001) cpl_oldPickup = /* restart from old pickup on/off flag */
(PID.TID 0000.0001)                   F
(PID.TID 0000.0001)     ;
(PID.TID 0000.0001) useImportMxlD = /* use Imported MxL. Depth from Coupler flag */
(PID.TID 0000.0001)                   F
(PID.TID 0000.0001)     ;
(PID.TID 0000.0001) useImportSST  = /* use Imported SST from Coupler on/off flag */
(PID.TID 0000.0001)                   T
(PID.TID 0000.0001)     ;
(PID.TID 0000.0001) useImportSSS  = /* use Imported SSS from Coupler on/off flag */
(PID.TID 0000.0001)                   F
(PID.TID 0000.0001)     ;
(PID.TID 0000.0001) useImportVsq  = /* use Imported surf.Vel^2 from Coupler flag */
(PID.TID 0000.0001)                   F
(PID.TID 0000.0001)     ;
(PID.TID 0000.0001) useImportThSIce= /* use Imported thSIce state-var fr Cpl. flag */
(PID.TID 0000.0001)                   F
(PID.TID 0000.0001)     ;
(PID.TID 0000.0001) useImportFlxCO2= /* use Imported air-sea CO2 flux fr Cpl.  flag */
(PID.TID 0000.0001)                   F
(PID.TID 0000.0001)     ;
(PID.TID 0000.0001) cpl_atmSendFrq = /* Frequency^o-1 for sending data to Coupler (s) */
(PID.TID 0000.0001)                 2.880000000000000E+03
(PID.TID 0000.0001)     ;
(PID.TID 0000.0001) cplSendFrq_iter = /* send data to coupler every "cplSendFrq" iter */
(PID.TID 0000.0001)                       8
(PID.TID 0000.0001)     ;
(PID.TID 0000.0001) maxNumberPrint = /* max number of printed Exp/Imp messages */
(PID.TID 0000.0001)                     100
(PID.TID 0000.0001)     ;
(PID.TID 0000.0001) // ===================================
(PID.TID 0000.0001) // End of Coupling set-up summary
(PID.TID 0000.0001) // ===================================
(PID.TID 0000.0001) SET_PARMS: done
(PID.TID 0000.0001) Enter INI_VERTICAL_GRID: setInterFDr=    T ; setCenterDr=    F
(PID.TID 0000.0001) tile:   1 ; Read from file dxC1_dXYa.face001.bin
(PID.TID 0000.0001)   => xC yC dxF dyF rA xG yG dxV dyU rAz dxC dyC rAw rAs dxG dyG AngleCS AngleSN
(PID.TID 0000.0001) tile:   2 ; Read from file dxC1_dXYa.face002.bin
(PID.TID 0000.0001)   => xC yC dxF dyF rA xG yG dxV dyU rAz dxC dyC rAw rAs dxG dyG AngleCS AngleSN
(PID.TID 0000.0001) tile:   3 ; Read from file dxC1_dXYa.face003.bin
(PID.TID 0000.0001)   => xC yC dxF dyF rA xG yG dxV dyU rAz dxC dyC rAw rAs dxG dyG AngleCS AngleSN
(PID.TID 0000.0001) tile:   4 ; Read from file dxC1_dXYa.face004.bin
(PID.TID 0000.0001)   => xC yC dxF dyF rA xG yG dxV dyU rAz dxC dyC rAw rAs dxG dyG AngleCS AngleSN
(PID.TID 0000.0001) tile:   5 ; Read from file dxC1_dXYa.face005.bin
(PID.TID 0000.0001)   => xC yC dxF dyF rA xG yG dxV dyU rAz dxC dyC rAw rAs dxG dyG AngleCS AngleSN
(PID.TID 0000.0001) tile:   6 ; Read from file dxC1_dXYa.face006.bin
(PID.TID 0000.0001)   => xC yC dxF dyF rA xG yG dxV dyU rAz dxC dyC rAw rAs dxG dyG AngleCS AngleSN
(PID.TID 0000.0001) %MON XC_max                       =   1.7854351589505E+02
(PID.TID 0000.0001) %MON XC_min                       =  -1.7854351589505E+02
(PID.TID 0000.0001) %MON XC_mean                      =  -4.6999441375798E-15
(PID.TID 0000.0001) %MON XC_sd                        =   1.0355545336287E+02
(PID.TID 0000.0001) %MON XG_max                       =   1.8000000000000E+02
(PID.TID 0000.0001) %MON XG_min                       =  -1.7708797161002E+02
(PID.TID 0000.0001) %MON XG_mean                      =   1.8603515625000E+00
(PID.TID 0000.0001) %MON XG_sd                        =   1.0357130300504E+02
(PID.TID 0000.0001) %MON DXC_max                      =   3.2375185836900E+05
(PID.TID 0000.0001) %MON DXC_min                      =   1.1353730006923E+05
(PID.TID 0000.0001) %MON DXC_mean                     =   2.8606102525036E+05
(PID.TID 0000.0001) %MON DXC_sd                       =   3.4020997630307E+04
(PID.TID 0000.0001) %MON DXF_max                      =   3.2369947500827E+05
(PID.TID 0000.0001) %MON DXF_min                      =   1.2020820513318E+05
(PID.TID 0000.0001) %MON DXF_mean                     =   2.8605437324820E+05
(PID.TID 0000.0001) %MON DXF_sd                       =   3.4050524252539E+04
(PID.TID 0000.0001) %MON DXG_max                      =   3.2375195872773E+05
(PID.TID 0000.0001) %MON DXG_min                      =   1.0098378008791E+05
(PID.TID 0000.0001) %MON DXG_mean                     =   2.8603818508931E+05
(PID.TID 0000.0001) %MON DXG_sd                       =   3.4140406908005E+04
(PID.TID 0000.0001) %MON DXV_max                      =   3.2380418162750E+05
(PID.TID 0000.0001) %MON DXV_min                      =   8.0152299824136E+04
(PID.TID 0000.0001) %MON DXV_mean                     =   2.8603970633619E+05
(PID.TID 0000.0001) %MON DXV_sd                       =   3.4145142117723E+04
(PID.TID 0000.0001) %MON YC_max                       =   8.7940663871962E+01
(PID.TID 0000.0001) %MON YC_min                       =  -8.7940663871962E+01
(PID.TID 0000.0001) %MON YC_mean                      =   0.0000000000000E+00
(PID.TID 0000.0001) %MON YC_sd                        =   3.8676242969072E+01
(PID.TID 0000.0001) %MON YG_max                       =   9.0000000000000E+01
(PID.TID 0000.0001) %MON YG_min                       =  -9.0000000000000E+01
(PID.TID 0000.0001) %MON YG_mean                      =  -1.1842378929335E-15
(PID.TID 0000.0001) %MON YG_sd                        =   3.8676895860710E+01
(PID.TID 0000.0001) %MON DYC_max                      =   3.2375185836900E+05
(PID.TID 0000.0001) %MON DYC_min                      =   1.1353730006923E+05
(PID.TID 0000.0001) %MON DYC_mean                     =   2.8606102525036E+05
(PID.TID 0000.0001) %MON DYC_sd                       =   3.4020997630307E+04
(PID.TID 0000.0001) %MON DYF_max                      =   3.2369947500827E+05
(PID.TID 0000.0001) %MON DYF_min                      =   1.2020820513318E+05
(PID.TID 0000.0001) %MON DYF_mean                     =   2.8605437324820E+05
(PID.TID 0000.0001) %MON DYF_sd                       =   3.4050524252539E+04
(PID.TID 0000.0001) %MON DYG_max                      =   3.2375195872773E+05
(PID.TID 0000.0001) %MON DYG_min                      =   1.0098378008791E+05
(PID.TID 0000.0001) %MON DYG_mean                     =   2.8603818508931E+05
(PID.TID 0000.0001) %MON DYG_sd                       =   3.4140406908005E+04
(PID.TID 0000.0001) %MON DYU_max                      =   3.2380418162750E+05
(PID.TID 0000.0001) %MON DYU_min                      =   8.0152299824136E+04
(PID.TID 0000.0001) %MON DYU_mean                     =   2.8603970633619E+05
(PID.TID 0000.0001) %MON DYU_sd                       =   3.4145142117723E+04
(PID.TID 0000.0001) %MON RA_max                       =   1.0474757731659E+11
(PID.TID 0000.0001) %MON RA_min                       =   1.5497867056722E+10
(PID.TID 0000.0001) %MON RA_mean                      =   8.2985711332657E+10
(PID.TID 0000.0001) %MON RA_sd                        =   1.7448591913787E+10
(PID.TID 0000.0001) %MON RAW_max                      =   1.0481529828871E+11
(PID.TID 0000.0001) %MON RAW_min                      =   1.1465425741966E+10
(PID.TID 0000.0001) %MON RAW_mean                     =   8.2985711332657E+10
(PID.TID 0000.0001) %MON RAW_sd                       =   1.7503889570793E+10
(PID.TID 0000.0001) %MON RAS_max                      =   1.0481529828871E+11
(PID.TID 0000.0001) %MON RAS_min                      =   1.1465425741966E+10
(PID.TID 0000.0001) %MON RAS_mean                     =   8.2985711332657E+10
(PID.TID 0000.0001) %MON RAS_sd                       =   1.7503889570793E+10
(PID.TID 0000.0001) %MON RAZ_max                      =   1.0484349334619E+11
(PID.TID 0000.0001) %MON RAZ_min                      =   8.8317900612505E+09
(PID.TID 0000.0001) %MON RAZ_mean                     =   8.2992246709235E+10
(PID.TID 0000.0001) %MON RAZ_sd                       =   1.7482297311044E+10
(PID.TID 0000.0001) %MON AngleCS_max                  =   9.9999994756719E-01
(PID.TID 0000.0001) %MON AngleCS_min                  =  -9.9968286884824E-01
(PID.TID 0000.0001) %MON AngleCS_mean                 =   3.3078922539000E-01
(PID.TID 0000.0001) %MON AngleCS_sd                   =   6.2496278958502E-01
(PID.TID 0000.0001) %MON AngleSN_max                  =   9.9968286884824E-01
(PID.TID 0000.0001) %MON AngleSN_min                  =  -9.9999994756719E-01
(PID.TID 0000.0001) %MON AngleSN_mean                 =  -3.3078922539000E-01
(PID.TID 0000.0001) %MON AngleSN_sd                   =   6.2496278958502E-01
(PID.TID 0000.0001) 
(PID.TID 0000.0001) SET_REF_STATE: PhiRef/g [m] at level Center (integer)
(PID.TID 0000.0001)                      and at level Interface (half-int.) :
(PID.TID 0000.0001)  K=  0.5  ;  r=       100000.0  ;  phiRef/g=        0.000
(PID.TID 0000.0001)  K=  1.0  ;  r=        99250.0  ;  phiRef/g=       65.000
(PID.TID 0000.0001)  K=  1.5  ;  r=        98500.0  ;  phiRef/g=      144.206
(PID.TID 0000.0001)  K=  2.0  ;  r=        97439.0  ;  phiRef/g=      223.413
(PID.TID 0000.0001)  K=  2.5  ;  r=        96378.0  ;  phiRef/g=      337.236
(PID.TID 0000.0001)  K=  3.0  ;  r=        94878.0  ;  phiRef/g=      451.060
(PID.TID 0000.0001)  K=  3.5  ;  r=        93378.0  ;  phiRef/g=      615.802
(PID.TID 0000.0001)  K=  4.0  ;  r=        91257.0  ;  phiRef/g=      780.544
(PID.TID 0000.0001)  K=  4.5  ;  r=        89136.0  ;  phiRef/g=     1021.698
(PID.TID 0000.0001)  K=  5.0  ;  r=        86136.0  ;  phiRef/g=     1262.852
(PID.TID 0000.0001)  K=  5.5  ;  r=        83136.0  ;  phiRef/g=     1604.545
(PID.TID 0000.0001)  K=  6.0  ;  r=        79236.0  ;  phiRef/g=     1946.238
(PID.TID 0000.0001)  K=  6.5  ;  r=        75336.0  ;  phiRef/g=     2394.973
(PID.TID 0000.0001)  K=  7.0  ;  r=        70786.0  ;  phiRef/g=     2843.709
(PID.TID 0000.0001)  K=  7.5  ;  r=        66236.0  ;  phiRef/g=     3381.201
(PID.TID 0000.0001)  K=  8.0  ;  r=        61536.0  ;  phiRef/g=     3918.694
(PID.TID 0000.0001)  K=  8.5  ;  r=        56836.0  ;  phiRef/g=     4523.627
(PID.TID 0000.0001)  K=  9.0  ;  r=        52196.0  ;  phiRef/g=     5128.560
(PID.TID 0000.0001)  K=  9.5  ;  r=        47556.0  ;  phiRef/g=     5777.201
(PID.TID 0000.0001)  K= 10.0  ;  r=        43356.0  ;  phiRef/g=     6425.843
(PID.TID 0000.0001)  K= 10.5  ;  r=        39156.0  ;  phiRef/g=     7072.216
(PID.TID 0000.0001)  K= 11.0  ;  r=        35666.0  ;  phiRef/g=     7718.589
(PID.TID 0000.0001)  K= 11.5  ;  r=        32176.0  ;  phiRef/g=     8336.533
(PID.TID 0000.0001)  K= 12.0  ;  r=        29276.0  ;  phiRef/g=     8954.478
(PID.TID 0000.0001)  K= 12.5  ;  r=        26376.0  ;  phiRef/g=     9546.297
(PID.TID 0000.0001)  K= 13.0  ;  r=        23966.0  ;  phiRef/g=    10138.117
(PID.TID 0000.0001)  K= 13.5  ;  r=        21556.0  ;  phiRef/g=    10706.062
(PID.TID 0000.0001)  K= 14.0  ;  r=        19554.0  ;  phiRef/g=    11274.007
(PID.TID 0000.0001)  K= 14.5  ;  r=        17552.0  ;  phiRef/g=    11820.513
(PID.TID 0000.0001)  K= 15.0  ;  r=        15888.0  ;  phiRef/g=    12367.018
(PID.TID 0000.0001)  K= 15.5  ;  r=        14224.0  ;  phiRef/g=    12894.813
(PID.TID 0000.0001)  K= 16.0  ;  r=        12841.0  ;  phiRef/g=    13422.607
(PID.TID 0000.0001)  K= 16.5  ;  r=        11458.0  ;  phiRef/g=    13934.405
(PID.TID 0000.0001)  K= 17.0  ;  r=        10309.0  ;  phiRef/g=    14446.203
(PID.TID 0000.0001)  K= 17.5  ;  r=         9160.0  ;  phiRef/g=    14945.188
(PID.TID 0000.0001)  K= 18.0  ;  r=         8205.0  ;  phiRef/g=    15444.173
(PID.TID 0000.0001)  K= 18.5  ;  r=         7250.0  ;  phiRef/g=    15934.021
(PID.TID 0000.0001)  K= 19.0  ;  r=         6457.0  ;  phiRef/g=    16423.869
(PID.TID 0000.0001)  K= 19.5  ;  r=         5664.0  ;  phiRef/g=    16909.194
(PID.TID 0000.0001)  K= 20.0  ;  r=         5005.0  ;  phiRef/g=    17394.518
(PID.TID 0000.0001)  K= 20.5  ;  r=         4346.0  ;  phiRef/g=    17881.933
(PID.TID 0000.0001)  K= 21.0  ;  r=         3798.0  ;  phiRef/g=    18369.347
(PID.TID 0000.0001)  K= 21.5  ;  r=         3250.0  ;  phiRef/g=    18867.727
(PID.TID 0000.0001)  K= 22.0  ;  r=         2795.0  ;  phiRef/g=    19366.107
(PID.TID 0000.0001)  K= 22.5  ;  r=         2340.0  ;  phiRef/g=    19889.510
(PID.TID 0000.0001)  K= 23.0  ;  r=         1962.0  ;  phiRef/g=    20412.912
(PID.TID 0000.0001)  K= 23.5  ;  r=         1584.0  ;  phiRef/g=    20987.805
(PID.TID 0000.0001)  K= 24.0  ;  r=         1270.0  ;  phiRef/g=    21562.697
(PID.TID 0000.0001)  K= 24.5  ;  r=          956.0  ;  phiRef/g=    22250.139
(PID.TID 0000.0001)  K= 25.0  ;  r=          695.0  ;  phiRef/g=    22937.580
(PID.TID 0000.0001)  K= 25.5  ;  r=          434.0  ;  phiRef/g=    23972.294
(PID.TID 0000.0001)  K= 26.0  ;  r=          217.0  ;  phiRef/g=    25007.007
(PID.TID 0000.0001)  K= 26.5  ;  r=            0.0  ;  phiRef/g=    30251.966
(PID.TID 0000.0001) GAD_INIT_FIXED: GAD_OlMinSize=  2  0  2
(PID.TID 0000.0001) 
(PID.TID 0000.0001) // ===================================
(PID.TID 0000.0001) // GAD parameters :
(PID.TID 0000.0001) // ===================================
(PID.TID 0000.0001) tempAdvScheme =   /* Temp. Horiz.Advection scheme selector */
(PID.TID 0000.0001)                       2
(PID.TID 0000.0001)     ;
(PID.TID 0000.0001) tempVertAdvScheme =   /* Temp. Vert. Advection scheme selector */
(PID.TID 0000.0001)                       2
(PID.TID 0000.0001)     ;
(PID.TID 0000.0001) tempMultiDimAdvec =   /* use Muti-Dim Advec method for Temp */
(PID.TID 0000.0001)                   F
(PID.TID 0000.0001)     ;
(PID.TID 0000.0001) tempSOM_Advection = /* use 2nd Order Moment Advection for Temp */
(PID.TID 0000.0001)                   F
(PID.TID 0000.0001)     ;
(PID.TID 0000.0001) AdamsBashforthGt = /* apply Adams-Bashforth extrapolation on Gt */
(PID.TID 0000.0001)                   T
(PID.TID 0000.0001)     ;
(PID.TID 0000.0001) AdamsBashforth_T = /* apply Adams-Bashforth extrapolation on Temp */
(PID.TID 0000.0001)                   F
(PID.TID 0000.0001)     ;
(PID.TID 0000.0001) saltAdvScheme =   /* Salt. Horiz.advection scheme selector */
(PID.TID 0000.0001)                      77
(PID.TID 0000.0001)     ;
(PID.TID 0000.0001) saltVertAdvScheme =   /* Salt. Vert. Advection scheme selector */
(PID.TID 0000.0001)                      77
(PID.TID 0000.0001)     ;
(PID.TID 0000.0001) saltMultiDimAdvec =   /* use Muti-Dim Advec method for Salt */
(PID.TID 0000.0001)                   T
(PID.TID 0000.0001)     ;
(PID.TID 0000.0001) saltSOM_Advection = /* use 2nd Order Moment Advection for Salt */
(PID.TID 0000.0001)                   F
(PID.TID 0000.0001)     ;
(PID.TID 0000.0001) AdamsBashforthGs = /* apply Adams-Bashforth extrapolation on Gs */
(PID.TID 0000.0001)                   F
(PID.TID 0000.0001)     ;
(PID.TID 0000.0001) AdamsBashforth_S = /* apply Adams-Bashforth extrapolation on Salt */
(PID.TID 0000.0001)                   F
(PID.TID 0000.0001)     ;
(PID.TID 0000.0001) // ===================================
(PID.TID 0000.0001) ATM_PHYS_INIT_FIXED: opening data.atm_gray
(PID.TID 0000.0001)  OPEN_COPY_DATA_FILE: opening file data.atm_gray
(PID.TID 0000.0001) // =======================================================
(PID.TID 0000.0001) // Parameter file "data.atm_gray"
(PID.TID 0000.0001) // =======================================================
(PID.TID 0000.0001) >
(PID.TID 0000.0001) > &atmosphere_nml
(PID.TID 0000.0001) >    turb = .TRUE.,
(PID.TID 0000.0001) >    ldry_convection = .false.,
(PID.TID 0000.0001) >    lwet_convection = .TRUE.,
(PID.TID 0000.0001) >    do_virtual = .false.,
(PID.TID 0000.0001) >    two_stream = .true.,
(PID.TID 0000.0001) >    mixed_layer_bc = .false.,
(PID.TID 0000.0001) >    roughness_heat = 0.05,
(PID.TID 0000.0001) >    roughness_moist = 0.05,
(PID.TID 0000.0001) >    roughness_mom = 0.05,
(PID.TID 0000.0001) > /
(PID.TID 0000.0001) >
(PID.TID 0000.0001) > &radiation_nml
(PID.TID 0000.0001) >  select_incSW  = 1,
(PID.TID 0000.0001) >  solar_constant= 1365.,
(PID.TID 0000.0001) ># yearLength=
(PID.TID 0000.0001) ># yearPhase =
(PID.TID 0000.0001) ># obliquity =
(PID.TID 0000.0001) >  del_sol=1.,
(PID.TID 0000.0001) ># ir_tau_eq=
(PID.TID 0000.0001) ># ir_tau_pole=
(PID.TID 0000.0001) >  atm_abs= 0.22,
(PID.TID 0000.0001) ># value that Ruth is using as default:
(PID.TID 0000.0001) ># atm_abs= 0.2486,
(PID.TID 0000.0001) ># sw_diff=
(PID.TID 0000.0001) ># linear_tau=
(PID.TID 0000.0001) ># del_sw=
(PID.TID 0000.0001) >  albedo_value=0.38,
(PID.TID 0000.0001) ># window=
(PID.TID 0000.0001) ># wv_exponent=
(PID.TID 0000.0001) ># solar_exponent=
(PID.TID 0000.0001) >  wv_exponent=0.,
(PID.TID 0000.0001) > /
(PID.TID 0000.0001) >
(PID.TID 0000.0001) > &lscale_cond_nml
(PID.TID 0000.0001) ># hc =
(PID.TID 0000.0001) ># do_evap=
(PID.TID 0000.0001) > /
(PID.TID 0000.0001) >
(PID.TID 0000.0001) > &dargan_bettsmiller_nml
(PID.TID 0000.0001) >#-- default:
(PID.TID 0000.0001) >#   tau_bm = 7200.,
(PID.TID 0000.0001) >#   rhbm   = 0.8,
(PID.TID 0000.0001) >#   do_virtual   = .FALSE.,
(PID.TID 0000.0001) >#   do_shallower = .FALSE.,
(PID.TID 0000.0001) >#   do_changeqref= .FALSE.,
(PID.TID 0000.0001) >#   do_envsat    = .FALSE.,
(PID.TID 0000.0001) >#   do_taucape   = .FALSE.,
(PID.TID 0000.0001) >#     capetaubm  = 900.,
(PID.TID 0000.0001) >#     tau_min    = 2400.,
(PID.TID 0000.0001) >#   do_bm_shift  = .FALSE.,
(PID.TID 0000.0001) >#-- POG choice:
(PID.TID 0000.0001) >#  rhbm = 0.7,
(PID.TID 0000.0001) >   do_virtual= .TRUE.,
(PID.TID 0000.0001) >   do_shallower= .TRUE.,
(PID.TID 0000.0001) > /
(PID.TID 0000.0001) >
(PID.TID 0000.0001) > &surface_flux_nml
(PID.TID 0000.0001) > /
(PID.TID 0000.0001) >
(PID.TID 0000.0001) > &vert_turb_driver_nml
(PID.TID 0000.0001) >#  do_shallow_conv, do_mellor_yamada,
(PID.TID 0000.0001) >#  gust_scheme, constant_gust, use_tau,
(PID.TID 0000.0001) >#  do_molecular_diffusion
(PID.TID 0000.0001) >  do_mellor_yamada=.FALSE.,
(PID.TID 0000.0001) > /
(PID.TID 0000.0001) >
(PID.TID 0000.0001) > &diffusivity_nml
(PID.TID 0000.0001) >#  fixed_depth, depth_0, frac_inner,
(PID.TID 0000.0001) >#  rich_crit_pbl, entr_ratio, parcel_buoy,
(PID.TID 0000.0001) >#  znom, free_atm_diff, free_atm_skyhi_diff,
(PID.TID 0000.0001) >#  pbl_mcm, rich_crit_diff, mix_len, rich_prandtl,
(PID.TID 0000.0001) >#  background_m, background_t, ampns, ampns_max,
(PID.TID 0000.0001) >#  do_virtual_non_mcm
(PID.TID 0000.0001) > /
(PID.TID 0000.0001) >
(PID.TID 0000.0001) > &monin_obukhov_nml
(PID.TID 0000.0001) > /
(PID.TID 0000.0001) >
(PID.TID 0000.0001) > &my25_turb_nml
(PID.TID 0000.0001) > /
(PID.TID 0000.0001) >
(PID.TID 0000.0001) > &shallow_conv_nml
(PID.TID 0000.0001) > /
(PID.TID 0000.0001) >
(PID.TID 0000.0001) > &mixed_layer_nml
(PID.TID 0000.0001) ># evaporation, qflux_amp, depth, qflux_width
(PID.TID 0000.0001) >  depth=5000.,
(PID.TID 0000.0001) > /
(PID.TID 0000.0001) 
(PID.TID 0000.0001) ATM_PHYS_INIT_FIXED: finished reading data.atm_gray
(PID.TID 0000.0001) MIXED_LAYER_INIT: opening data.atm_gray
(PID.TID 0000.0001)  OPEN_COPY_DATA_FILE: opening file data.atm_gray
(PID.TID 0000.0001) // =======================================================
(PID.TID 0000.0001) // Parameter file "data.atm_gray"
(PID.TID 0000.0001) // =======================================================
(PID.TID 0000.0001) >
(PID.TID 0000.0001) > &atmosphere_nml
(PID.TID 0000.0001) >    turb = .TRUE.,
(PID.TID 0000.0001) >    ldry_convection = .false.,
(PID.TID 0000.0001) >    lwet_convection = .TRUE.,
(PID.TID 0000.0001) >    do_virtual = .false.,
(PID.TID 0000.0001) >    two_stream = .true.,
(PID.TID 0000.0001) >    mixed_layer_bc = .false.,
(PID.TID 0000.0001) >    roughness_heat = 0.05,
(PID.TID 0000.0001) >    roughness_moist = 0.05,
(PID.TID 0000.0001) >    roughness_mom = 0.05,
(PID.TID 0000.0001) > /
(PID.TID 0000.0001) >
(PID.TID 0000.0001) > &radiation_nml
(PID.TID 0000.0001) >  select_incSW  = 1,
(PID.TID 0000.0001) >  solar_constant= 1365.,
(PID.TID 0000.0001) ># yearLength=
(PID.TID 0000.0001) ># yearPhase =
(PID.TID 0000.0001) ># obliquity =
(PID.TID 0000.0001) >  del_sol=1.,
(PID.TID 0000.0001) ># ir_tau_eq=
(PID.TID 0000.0001) ># ir_tau_pole=
(PID.TID 0000.0001) >  atm_abs= 0.22,
(PID.TID 0000.0001) ># value that Ruth is using as default:
(PID.TID 0000.0001) ># atm_abs= 0.2486,
(PID.TID 0000.0001) ># sw_diff=
(PID.TID 0000.0001) ># linear_tau=
(PID.TID 0000.0001) ># del_sw=
(PID.TID 0000.0001) >  albedo_value=0.38,
(PID.TID 0000.0001) ># window=
(PID.TID 0000.0001) ># wv_exponent=
(PID.TID 0000.0001) ># solar_exponent=
(PID.TID 0000.0001) >  wv_exponent=0.,
(PID.TID 0000.0001) > /
(PID.TID 0000.0001) >
(PID.TID 0000.0001) > &lscale_cond_nml
(PID.TID 0000.0001) ># hc =
(PID.TID 0000.0001) ># do_evap=
(PID.TID 0000.0001) > /
(PID.TID 0000.0001) >
(PID.TID 0000.0001) > &dargan_bettsmiller_nml
(PID.TID 0000.0001) >#-- default:
(PID.TID 0000.0001) >#   tau_bm = 7200.,
(PID.TID 0000.0001) >#   rhbm   = 0.8,
(PID.TID 0000.0001) >#   do_virtual   = .FALSE.,
(PID.TID 0000.0001) >#   do_shallower = .FALSE.,
(PID.TID 0000.0001) >#   do_changeqref= .FALSE.,
(PID.TID 0000.0001) >#   do_envsat    = .FALSE.,
(PID.TID 0000.0001) >#   do_taucape   = .FALSE.,
(PID.TID 0000.0001) >#     capetaubm  = 900.,
(PID.TID 0000.0001) >#     tau_min    = 2400.,
(PID.TID 0000.0001) >#   do_bm_shift  = .FALSE.,
(PID.TID 0000.0001) >#-- POG choice:
(PID.TID 0000.0001) >#  rhbm = 0.7,
(PID.TID 0000.0001) >   do_virtual= .TRUE.,
(PID.TID 0000.0001) >   do_shallower= .TRUE.,
(PID.TID 0000.0001) > /
(PID.TID 0000.0001) >
(PID.TID 0000.0001) > &surface_flux_nml
(PID.TID 0000.0001) > /
(PID.TID 0000.0001) >
(PID.TID 0000.0001) > &vert_turb_driver_nml
(PID.TID 0000.0001) >#  do_shallow_conv, do_mellor_yamada,
(PID.TID 0000.0001) >#  gust_scheme, constant_gust, use_tau,
(PID.TID 0000.0001) >#  do_molecular_diffusion
(PID.TID 0000.0001) >  do_mellor_yamada=.FALSE.,
(PID.TID 0000.0001) > /
(PID.TID 0000.0001) >
(PID.TID 0000.0001) > &diffusivity_nml
(PID.TID 0000.0001) >#  fixed_depth, depth_0, frac_inner,
(PID.TID 0000.0001) >#  rich_crit_pbl, entr_ratio, parcel_buoy,
(PID.TID 0000.0001) >#  znom, free_atm_diff, free_atm_skyhi_diff,
(PID.TID 0000.0001) >#  pbl_mcm, rich_crit_diff, mix_len, rich_prandtl,
(PID.TID 0000.0001) >#  background_m, background_t, ampns, ampns_max,
(PID.TID 0000.0001) >#  do_virtual_non_mcm
(PID.TID 0000.0001) > /
(PID.TID 0000.0001) >
(PID.TID 0000.0001) > &monin_obukhov_nml
(PID.TID 0000.0001) > /
(PID.TID 0000.0001) >
(PID.TID 0000.0001) > &my25_turb_nml
(PID.TID 0000.0001) > /
(PID.TID 0000.0001) >
(PID.TID 0000.0001) > &shallow_conv_nml
(PID.TID 0000.0001) > /
(PID.TID 0000.0001) >
(PID.TID 0000.0001) > &mixed_layer_nml
(PID.TID 0000.0001) ># evaporation, qflux_amp, depth, qflux_width
(PID.TID 0000.0001) >  depth=5000.,
(PID.TID 0000.0001) > /
(PID.TID 0000.0001) 
(PID.TID 0000.0001) MIXED_LAYER_INIT: finished reading data.atm_gray
(PID.TID 0000.0001) LSCALE_COND_INIT: opening data.atm_gray
(PID.TID 0000.0001)  OPEN_COPY_DATA_FILE: opening file data.atm_gray
(PID.TID 0000.0001) // =======================================================
(PID.TID 0000.0001) // Parameter file "data.atm_gray"
(PID.TID 0000.0001) // =======================================================
(PID.TID 0000.0001) >
(PID.TID 0000.0001) > &atmosphere_nml
(PID.TID 0000.0001) >    turb = .TRUE.,
(PID.TID 0000.0001) >    ldry_convection = .false.,
(PID.TID 0000.0001) >    lwet_convection = .TRUE.,
(PID.TID 0000.0001) >    do_virtual = .false.,
(PID.TID 0000.0001) >    two_stream = .true.,
(PID.TID 0000.0001) >    mixed_layer_bc = .false.,
(PID.TID 0000.0001) >    roughness_heat = 0.05,
(PID.TID 0000.0001) >    roughness_moist = 0.05,
(PID.TID 0000.0001) >    roughness_mom = 0.05,
(PID.TID 0000.0001) > /
(PID.TID 0000.0001) >
(PID.TID 0000.0001) > &radiation_nml
(PID.TID 0000.0001) >  select_incSW  = 1,
(PID.TID 0000.0001) >  solar_constant= 1365.,
(PID.TID 0000.0001) ># yearLength=
(PID.TID 0000.0001) ># yearPhase =
(PID.TID 0000.0001) ># obliquity =
(PID.TID 0000.0001) >  del_sol=1.,
(PID.TID 0000.0001) ># ir_tau_eq=
(PID.TID 0000.0001) ># ir_tau_pole=
(PID.TID 0000.0001) >  atm_abs= 0.22,
(PID.TID 0000.0001) ># value that Ruth is using as default:
(PID.TID 0000.0001) ># atm_abs= 0.2486,
(PID.TID 0000.0001) ># sw_diff=
(PID.TID 0000.0001) ># linear_tau=
(PID.TID 0000.0001) ># del_sw=
(PID.TID 0000.0001) >  albedo_value=0.38,
(PID.TID 0000.0001) ># window=
(PID.TID 0000.0001) ># wv_exponent=
(PID.TID 0000.0001) ># solar_exponent=
(PID.TID 0000.0001) >  wv_exponent=0.,
(PID.TID 0000.0001) > /
(PID.TID 0000.0001) >
(PID.TID 0000.0001) > &lscale_cond_nml
(PID.TID 0000.0001) ># hc =
(PID.TID 0000.0001) ># do_evap=
(PID.TID 0000.0001) > /
(PID.TID 0000.0001) >
(PID.TID 0000.0001) > &dargan_bettsmiller_nml
(PID.TID 0000.0001) >#-- default:
(PID.TID 0000.0001) >#   tau_bm = 7200.,
(PID.TID 0000.0001) >#   rhbm   = 0.8,
(PID.TID 0000.0001) >#   do_virtual   = .FALSE.,
(PID.TID 0000.0001) >#   do_shallower = .FALSE.,
(PID.TID 0000.0001) >#   do_changeqref= .FALSE.,
(PID.TID 0000.0001) >#   do_envsat    = .FALSE.,
(PID.TID 0000.0001) >#   do_taucape   = .FALSE.,
(PID.TID 0000.0001) >#     capetaubm  = 900.,
(PID.TID 0000.0001) >#     tau_min    = 2400.,
(PID.TID 0000.0001) >#   do_bm_shift  = .FALSE.,
(PID.TID 0000.0001) >#-- POG choice:
(PID.TID 0000.0001) >#  rhbm = 0.7,
(PID.TID 0000.0001) >   do_virtual= .TRUE.,
(PID.TID 0000.0001) >   do_shallower= .TRUE.,
(PID.TID 0000.0001) > /
(PID.TID 0000.0001) >
(PID.TID 0000.0001) > &surface_flux_nml
(PID.TID 0000.0001) > /
(PID.TID 0000.0001) >
(PID.TID 0000.0001) > &vert_turb_driver_nml
(PID.TID 0000.0001) >#  do_shallow_conv, do_mellor_yamada,
(PID.TID 0000.0001) >#  gust_scheme, constant_gust, use_tau,
(PID.TID 0000.0001) >#  do_molecular_diffusion
(PID.TID 0000.0001) >  do_mellor_yamada=.FALSE.,
(PID.TID 0000.0001) > /
(PID.TID 0000.0001) >
(PID.TID 0000.0001) > &diffusivity_nml
(PID.TID 0000.0001) >#  fixed_depth, depth_0, frac_inner,
(PID.TID 0000.0001) >#  rich_crit_pbl, entr_ratio, parcel_buoy,
(PID.TID 0000.0001) >#  znom, free_atm_diff, free_atm_skyhi_diff,
(PID.TID 0000.0001) >#  pbl_mcm, rich_crit_diff, mix_len, rich_prandtl,
(PID.TID 0000.0001) >#  background_m, background_t, ampns, ampns_max,
(PID.TID 0000.0001) >#  do_virtual_non_mcm
(PID.TID 0000.0001) > /
(PID.TID 0000.0001) >
(PID.TID 0000.0001) > &monin_obukhov_nml
(PID.TID 0000.0001) > /
(PID.TID 0000.0001) >
(PID.TID 0000.0001) > &my25_turb_nml
(PID.TID 0000.0001) > /
(PID.TID 0000.0001) >
(PID.TID 0000.0001) > &shallow_conv_nml
(PID.TID 0000.0001) > /
(PID.TID 0000.0001) >
(PID.TID 0000.0001) > &mixed_layer_nml
(PID.TID 0000.0001) ># evaporation, qflux_amp, depth, qflux_width
(PID.TID 0000.0001) >  depth=5000.,
(PID.TID 0000.0001) > /
(PID.TID 0000.0001) 
(PID.TID 0000.0001) LSCALE_COND_INIT: finished reading data.atm_gray
(PID.TID 0000.0001) DARGAN_BETTSMILLER_init: opening data.atm_gray
(PID.TID 0000.0001)  OPEN_COPY_DATA_FILE: opening file data.atm_gray
(PID.TID 0000.0001) // =======================================================
(PID.TID 0000.0001) // Parameter file "data.atm_gray"
(PID.TID 0000.0001) // =======================================================
(PID.TID 0000.0001) >
(PID.TID 0000.0001) > &atmosphere_nml
(PID.TID 0000.0001) >    turb = .TRUE.,
(PID.TID 0000.0001) >    ldry_convection = .false.,
(PID.TID 0000.0001) >    lwet_convection = .TRUE.,
(PID.TID 0000.0001) >    do_virtual = .false.,
(PID.TID 0000.0001) >    two_stream = .true.,
(PID.TID 0000.0001) >    mixed_layer_bc = .false.,
(PID.TID 0000.0001) >    roughness_heat = 0.05,
(PID.TID 0000.0001) >    roughness_moist = 0.05,
(PID.TID 0000.0001) >    roughness_mom = 0.05,
(PID.TID 0000.0001) > /
(PID.TID 0000.0001) >
(PID.TID 0000.0001) > &radiation_nml
(PID.TID 0000.0001) >  select_incSW  = 1,
(PID.TID 0000.0001) >  solar_constant= 1365.,
(PID.TID 0000.0001) ># yearLength=
(PID.TID 0000.0001) ># yearPhase =
(PID.TID 0000.0001) ># obliquity =
(PID.TID 0000.0001) >  del_sol=1.,
(PID.TID 0000.0001) ># ir_tau_eq=
(PID.TID 0000.0001) ># ir_tau_pole=
(PID.TID 0000.0001) >  atm_abs= 0.22,
(PID.TID 0000.0001) ># value that Ruth is using as default:
(PID.TID 0000.0001) ># atm_abs= 0.2486,
(PID.TID 0000.0001) ># sw_diff=
(PID.TID 0000.0001) ># linear_tau=
(PID.TID 0000.0001) ># del_sw=
(PID.TID 0000.0001) >  albedo_value=0.38,
(PID.TID 0000.0001) ># window=
(PID.TID 0000.0001) ># wv_exponent=
(PID.TID 0000.0001) ># solar_exponent=
(PID.TID 0000.0001) >  wv_exponent=0.,
(PID.TID 0000.0001) > /
(PID.TID 0000.0001) >
(PID.TID 0000.0001) > &lscale_cond_nml
(PID.TID 0000.0001) ># hc =
(PID.TID 0000.0001) ># do_evap=
(PID.TID 0000.0001) > /
(PID.TID 0000.0001) >
(PID.TID 0000.0001) > &dargan_bettsmiller_nml
(PID.TID 0000.0001) >#-- default:
(PID.TID 0000.0001) >#   tau_bm = 7200.,
(PID.TID 0000.0001) >#   rhbm   = 0.8,
(PID.TID 0000.0001) >#   do_virtual   = .FALSE.,
(PID.TID 0000.0001) >#   do_shallower = .FALSE.,
(PID.TID 0000.0001) >#   do_changeqref= .FALSE.,
(PID.TID 0000.0001) >#   do_envsat    = .FALSE.,
(PID.TID 0000.0001) >#   do_taucape   = .FALSE.,
(PID.TID 0000.0001) >#     capetaubm  = 900.,
(PID.TID 0000.0001) >#     tau_min    = 2400.,
(PID.TID 0000.0001) >#   do_bm_shift  = .FALSE.,
(PID.TID 0000.0001) >#-- POG choice:
(PID.TID 0000.0001) >#  rhbm = 0.7,
(PID.TID 0000.0001) >   do_virtual= .TRUE.,
(PID.TID 0000.0001) >   do_shallower= .TRUE.,
(PID.TID 0000.0001) > /
(PID.TID 0000.0001) >
(PID.TID 0000.0001) > &surface_flux_nml
(PID.TID 0000.0001) > /
(PID.TID 0000.0001) >
(PID.TID 0000.0001) > &vert_turb_driver_nml
(PID.TID 0000.0001) >#  do_shallow_conv, do_mellor_yamada,
(PID.TID 0000.0001) >#  gust_scheme, constant_gust, use_tau,
(PID.TID 0000.0001) >#  do_molecular_diffusion
(PID.TID 0000.0001) >  do_mellor_yamada=.FALSE.,
(PID.TID 0000.0001) > /
(PID.TID 0000.0001) >
(PID.TID 0000.0001) > &diffusivity_nml
(PID.TID 0000.0001) >#  fixed_depth, depth_0, frac_inner,
(PID.TID 0000.0001) >#  rich_crit_pbl, entr_ratio, parcel_buoy,
(PID.TID 0000.0001) >#  znom, free_atm_diff, free_atm_skyhi_diff,
(PID.TID 0000.0001) >#  pbl_mcm, rich_crit_diff, mix_len, rich_prandtl,
(PID.TID 0000.0001) >#  background_m, background_t, ampns, ampns_max,
(PID.TID 0000.0001) >#  do_virtual_non_mcm
(PID.TID 0000.0001) > /
(PID.TID 0000.0001) >
(PID.TID 0000.0001) > &monin_obukhov_nml
(PID.TID 0000.0001) > /
(PID.TID 0000.0001) >
(PID.TID 0000.0001) > &my25_turb_nml
(PID.TID 0000.0001) > /
(PID.TID 0000.0001) >
(PID.TID 0000.0001) > &shallow_conv_nml
(PID.TID 0000.0001) > /
(PID.TID 0000.0001) >
(PID.TID 0000.0001) > &mixed_layer_nml
(PID.TID 0000.0001) ># evaporation, qflux_amp, depth, qflux_width
(PID.TID 0000.0001) >  depth=5000.,
(PID.TID 0000.0001) > /
(PID.TID 0000.0001) 
(PID.TID 0000.0001) DARGAB_BETTSMILLER_INIT: finished reading data.atm_gray
(PID.TID 0000.0001) RADIATION_INIT: opening data.atm_gray
(PID.TID 0000.0001)  OPEN_COPY_DATA_FILE: opening file data.atm_gray
(PID.TID 0000.0001) // =======================================================
(PID.TID 0000.0001) // Parameter file "data.atm_gray"
(PID.TID 0000.0001) // =======================================================
(PID.TID 0000.0001) >
(PID.TID 0000.0001) > &atmosphere_nml
(PID.TID 0000.0001) >    turb = .TRUE.,
(PID.TID 0000.0001) >    ldry_convection = .false.,
(PID.TID 0000.0001) >    lwet_convection = .TRUE.,
(PID.TID 0000.0001) >    do_virtual = .false.,
(PID.TID 0000.0001) >    two_stream = .true.,
(PID.TID 0000.0001) >    mixed_layer_bc = .false.,
(PID.TID 0000.0001) >    roughness_heat = 0.05,
(PID.TID 0000.0001) >    roughness_moist = 0.05,
(PID.TID 0000.0001) >    roughness_mom = 0.05,
(PID.TID 0000.0001) > /
(PID.TID 0000.0001) >
(PID.TID 0000.0001) > &radiation_nml
(PID.TID 0000.0001) >  select_incSW  = 1,
(PID.TID 0000.0001) >  solar_constant= 1365.,
(PID.TID 0000.0001) ># yearLength=
(PID.TID 0000.0001) ># yearPhase =
(PID.TID 0000.0001) ># obliquity =
(PID.TID 0000.0001) >  del_sol=1.,
(PID.TID 0000.0001) ># ir_tau_eq=
(PID.TID 0000.0001) ># ir_tau_pole=
(PID.TID 0000.0001) >  atm_abs= 0.22,
(PID.TID 0000.0001) ># value that Ruth is using as default:
(PID.TID 0000.0001) ># atm_abs= 0.2486,
(PID.TID 0000.0001) ># sw_diff=
(PID.TID 0000.0001) ># linear_tau=
(PID.TID 0000.0001) ># del_sw=
(PID.TID 0000.0001) >  albedo_value=0.38,
(PID.TID 0000.0001) ># window=
(PID.TID 0000.0001) ># wv_exponent=
(PID.TID 0000.0001) ># solar_exponent=
(PID.TID 0000.0001) >  wv_exponent=0.,
(PID.TID 0000.0001) > /
(PID.TID 0000.0001) >
(PID.TID 0000.0001) > &lscale_cond_nml
(PID.TID 0000.0001) ># hc =
(PID.TID 0000.0001) ># do_evap=
(PID.TID 0000.0001) > /
(PID.TID 0000.0001) >
(PID.TID 0000.0001) > &dargan_bettsmiller_nml
(PID.TID 0000.0001) >#-- default:
(PID.TID 0000.0001) >#   tau_bm = 7200.,
(PID.TID 0000.0001) >#   rhbm   = 0.8,
(PID.TID 0000.0001) >#   do_virtual   = .FALSE.,
(PID.TID 0000.0001) >#   do_shallower = .FALSE.,
(PID.TID 0000.0001) >#   do_changeqref= .FALSE.,
(PID.TID 0000.0001) >#   do_envsat    = .FALSE.,
(PID.TID 0000.0001) >#   do_taucape   = .FALSE.,
(PID.TID 0000.0001) >#     capetaubm  = 900.,
(PID.TID 0000.0001) >#     tau_min    = 2400.,
(PID.TID 0000.0001) >#   do_bm_shift  = .FALSE.,
(PID.TID 0000.0001) >#-- POG choice:
(PID.TID 0000.0001) >#  rhbm = 0.7,
(PID.TID 0000.0001) >   do_virtual= .TRUE.,
(PID.TID 0000.0001) >   do_shallower= .TRUE.,
(PID.TID 0000.0001) > /
(PID.TID 0000.0001) >
(PID.TID 0000.0001) > &surface_flux_nml
(PID.TID 0000.0001) > /
(PID.TID 0000.0001) >
(PID.TID 0000.0001) > &vert_turb_driver_nml
(PID.TID 0000.0001) >#  do_shallow_conv, do_mellor_yamada,
(PID.TID 0000.0001) >#  gust_scheme, constant_gust, use_tau,
(PID.TID 0000.0001) >#  do_molecular_diffusion
(PID.TID 0000.0001) >  do_mellor_yamada=.FALSE.,
(PID.TID 0000.0001) > /
(PID.TID 0000.0001) >
(PID.TID 0000.0001) > &diffusivity_nml
(PID.TID 0000.0001) >#  fixed_depth, depth_0, frac_inner,
(PID.TID 0000.0001) >#  rich_crit_pbl, entr_ratio, parcel_buoy,
(PID.TID 0000.0001) >#  znom, free_atm_diff, free_atm_skyhi_diff,
(PID.TID 0000.0001) >#  pbl_mcm, rich_crit_diff, mix_len, rich_prandtl,
(PID.TID 0000.0001) >#  background_m, background_t, ampns, ampns_max,
(PID.TID 0000.0001) >#  do_virtual_non_mcm
(PID.TID 0000.0001) > /
(PID.TID 0000.0001) >
(PID.TID 0000.0001) > &monin_obukhov_nml
(PID.TID 0000.0001) > /
(PID.TID 0000.0001) >
(PID.TID 0000.0001) > &my25_turb_nml
(PID.TID 0000.0001) > /
(PID.TID 0000.0001) >
(PID.TID 0000.0001) > &shallow_conv_nml
(PID.TID 0000.0001) > /
(PID.TID 0000.0001) >
(PID.TID 0000.0001) > &mixed_layer_nml
(PID.TID 0000.0001) ># evaporation, qflux_amp, depth, qflux_width
(PID.TID 0000.0001) >  depth=5000.,
(PID.TID 0000.0001) > /
(PID.TID 0000.0001) 
(PID.TID 0000.0001) RADIATION_INIT: finished reading data.atm_gray
(PID.TID 0000.0001) VERT_TURB_DRIVER_INIT: opening data.atm_gray
(PID.TID 0000.0001)  OPEN_COPY_DATA_FILE: opening file data.atm_gray
(PID.TID 0000.0001) // =======================================================
(PID.TID 0000.0001) // Parameter file "data.atm_gray"
(PID.TID 0000.0001) // =======================================================
(PID.TID 0000.0001) >
(PID.TID 0000.0001) > &atmosphere_nml
(PID.TID 0000.0001) >    turb = .TRUE.,
(PID.TID 0000.0001) >    ldry_convection = .false.,
(PID.TID 0000.0001) >    lwet_convection = .TRUE.,
(PID.TID 0000.0001) >    do_virtual = .false.,
(PID.TID 0000.0001) >    two_stream = .true.,
(PID.TID 0000.0001) >    mixed_layer_bc = .false.,
(PID.TID 0000.0001) >    roughness_heat = 0.05,
(PID.TID 0000.0001) >    roughness_moist = 0.05,
(PID.TID 0000.0001) >    roughness_mom = 0.05,
(PID.TID 0000.0001) > /
(PID.TID 0000.0001) >
(PID.TID 0000.0001) > &radiation_nml
(PID.TID 0000.0001) >  select_incSW  = 1,
(PID.TID 0000.0001) >  solar_constant= 1365.,
(PID.TID 0000.0001) ># yearLength=
(PID.TID 0000.0001) ># yearPhase =
(PID.TID 0000.0001) ># obliquity =
(PID.TID 0000.0001) >  del_sol=1.,
(PID.TID 0000.0001) ># ir_tau_eq=
(PID.TID 0000.0001) ># ir_tau_pole=
(PID.TID 0000.0001) >  atm_abs= 0.22,
(PID.TID 0000.0001) ># value that Ruth is using as default:
(PID.TID 0000.0001) ># atm_abs= 0.2486,
(PID.TID 0000.0001) ># sw_diff=
(PID.TID 0000.0001) ># linear_tau=
(PID.TID 0000.0001) ># del_sw=
(PID.TID 0000.0001) >  albedo_value=0.38,
(PID.TID 0000.0001) ># window=
(PID.TID 0000.0001) ># wv_exponent=
(PID.TID 0000.0001) ># solar_exponent=
(PID.TID 0000.0001) >  wv_exponent=0.,
(PID.TID 0000.0001) > /
(PID.TID 0000.0001) >
(PID.TID 0000.0001) > &lscale_cond_nml
(PID.TID 0000.0001) ># hc =
(PID.TID 0000.0001) ># do_evap=
(PID.TID 0000.0001) > /
(PID.TID 0000.0001) >
(PID.TID 0000.0001) > &dargan_bettsmiller_nml
(PID.TID 0000.0001) >#-- default:
(PID.TID 0000.0001) >#   tau_bm = 7200.,
(PID.TID 0000.0001) >#   rhbm   = 0.8,
(PID.TID 0000.0001) >#   do_virtual   = .FALSE.,
(PID.TID 0000.0001) >#   do_shallower = .FALSE.,
(PID.TID 0000.0001) >#   do_changeqref= .FALSE.,
(PID.TID 0000.0001) >#   do_envsat    = .FALSE.,
(PID.TID 0000.0001) >#   do_taucape   = .FALSE.,
(PID.TID 0000.0001) >#     capetaubm  = 900.,
(PID.TID 0000.0001) >#     tau_min    = 2400.,
(PID.TID 0000.0001) >#   do_bm_shift  = .FALSE.,
(PID.TID 0000.0001) >#-- POG choice:
(PID.TID 0000.0001) >#  rhbm = 0.7,
(PID.TID 0000.0001) >   do_virtual= .TRUE.,
(PID.TID 0000.0001) >   do_shallower= .TRUE.,
(PID.TID 0000.0001) > /
(PID.TID 0000.0001) >
(PID.TID 0000.0001) > &surface_flux_nml
(PID.TID 0000.0001) > /
(PID.TID 0000.0001) >
(PID.TID 0000.0001) > &vert_turb_driver_nml
(PID.TID 0000.0001) >#  do_shallow_conv, do_mellor_yamada,
(PID.TID 0000.0001) >#  gust_scheme, constant_gust, use_tau,
(PID.TID 0000.0001) >#  do_molecular_diffusion
(PID.TID 0000.0001) >  do_mellor_yamada=.FALSE.,
(PID.TID 0000.0001) > /
(PID.TID 0000.0001) >
(PID.TID 0000.0001) > &diffusivity_nml
(PID.TID 0000.0001) >#  fixed_depth, depth_0, frac_inner,
(PID.TID 0000.0001) >#  rich_crit_pbl, entr_ratio, parcel_buoy,
(PID.TID 0000.0001) >#  znom, free_atm_diff, free_atm_skyhi_diff,
(PID.TID 0000.0001) >#  pbl_mcm, rich_crit_diff, mix_len, rich_prandtl,
(PID.TID 0000.0001) >#  background_m, background_t, ampns, ampns_max,
(PID.TID 0000.0001) >#  do_virtual_non_mcm
(PID.TID 0000.0001) > /
(PID.TID 0000.0001) >
(PID.TID 0000.0001) > &monin_obukhov_nml
(PID.TID 0000.0001) > /
(PID.TID 0000.0001) >
(PID.TID 0000.0001) > &my25_turb_nml
(PID.TID 0000.0001) > /
(PID.TID 0000.0001) >
(PID.TID 0000.0001) > &shallow_conv_nml
(PID.TID 0000.0001) > /
(PID.TID 0000.0001) >
(PID.TID 0000.0001) > &mixed_layer_nml
(PID.TID 0000.0001) ># evaporation, qflux_amp, depth, qflux_width
(PID.TID 0000.0001) >  depth=5000.,
(PID.TID 0000.0001) > /
(PID.TID 0000.0001) 
(PID.TID 0000.0001) VERT_TURB_DRIVER_INIT: finished reading data.atm_gray
(PID.TID 0000.0001) ------------------------------------------------------------
(PID.TID 0000.0001) DIAGNOSTICS_SET_LEVELS: done
(PID.TID 0000.0001)  Total Nb of available Diagnostics: ndiagt=   233
(PID.TID 0000.0001)  write list of available Diagnostics to file: available_diagnostics.log
(PID.TID 0000.0001) SETDIAG: Allocate  1 x 12 Levels for Diagnostic #    23 ETAN
(PID.TID 0000.0001) SETDIAG: Allocate  1 x 12 Levels for Diagnostic #    24 ETANSQ
(PID.TID 0000.0001) SETDIAG: Allocate  1 x 12 Levels for Diagnostic #    25 DETADT2
(PID.TID 0000.0001) SETDIAG: Allocate  1 x 12 Levels for Diagnostic #   218 AtPhCAPE
(PID.TID 0000.0001) SETDIAG: Allocate  1 x 12 Levels for Diagnostic #   199 AtPhCnvP
(PID.TID 0000.0001) SETDIAG: Allocate  1 x 12 Levels for Diagnostic #   200 AtPhLscP
(PID.TID 0000.0001) SETDIAG: Allocate  1 x 12 Levels for Diagnostic #   214 AtPhSens
(PID.TID 0000.0001) SETDIAG: Allocate  1 x 12 Levels for Diagnostic #   215 AtPhEvap
(PID.TID 0000.0001) SETDIAG: Allocate  1 x 12 Levels for Diagnostic #   216 AtPhTauX
(PID.TID 0000.0001) SETDIAG: Allocate  1 x 12 Levels for Diagnostic #   217 AtPhTauY
(PID.TID 0000.0001) SETDIAG: Allocate  1 x 12 Levels for Diagnostic #   192 AtPh_SST
(PID.TID 0000.0001) SETDIAG: Allocate  1 x 12 Levels for Diagnostic #   207 AtPhInSR
(PID.TID 0000.0001) SETDIAG: Allocate  1 x 12 Levels for Diagnostic #   209 AtPhOLR
(PID.TID 0000.0001) SETDIAG: Allocate  1 x 12 Levels for Diagnostic #   211 AtPhNSSR
(PID.TID 0000.0001) SETDIAG: Allocate  1 x 12 Levels for Diagnostic #   212 AtPhDSLR
(PID.TID 0000.0001) SETDIAG: Allocate  1 x 12 Levels for Diagnostic #   213 AtPhUSLR
(PID.TID 0000.0001) SETDIAG: Allocate 26 x  4 Levels for Diagnostic #    29 UVEL
(PID.TID 0000.0001) SETDIAG: Allocate 26 x  4 Levels for Diagnostic #    30 VVEL
(PID.TID 0000.0001) SETDIAG: Allocate 26 x  4 Levels for Diagnostic #    31 WVEL
(PID.TID 0000.0001) SETDIAG: Allocate 26 x  4 Levels for Diagnostic #    26 THETA
(PID.TID 0000.0001) SETDIAG: Allocate 26 x  4 Levels for Diagnostic #    27 SALT
(PID.TID 0000.0001) SETDIAG: Allocate 26 x  4 Levels for Diagnostic #    34 UVELSQ
(PID.TID 0000.0001) SETDIAG: Allocate 26 x  4 Levels for Diagnostic #    35 VVELSQ
(PID.TID 0000.0001) SETDIAG: Allocate 26 x  4 Levels for Diagnostic #    36 WVELSQ
(PID.TID 0000.0001) SETDIAG: Allocate 26 x  4 Levels for Diagnostic #    32 THETASQ
(PID.TID 0000.0001) SETDIAG: Allocate 26 x  4 Levels for Diagnostic #    33 SALTSQ
(PID.TID 0000.0001) SETDIAG: Allocate 26 x  4 Levels for Diagnostic #    43 UVELMASS
(PID.TID 0000.0001) SETDIAG: Allocate 26 x  4 Levels for Diagnostic #    44 VVELMASS
(PID.TID 0000.0001) SETDIAG: Allocate 26 x  4 Levels for Diagnostic #    39 UV_VEL_C
(PID.TID 0000.0001) SETDIAG: Allocate 26 x  4 Levels for Diagnostic #    28 RELHUM
(PID.TID 0000.0001) SETDIAG: Allocate 26 x  4 Levels for Diagnostic #   110 ADVx_TH
(PID.TID 0000.0001) SETDIAG: Allocate 26 x  4 Levels for Diagnostic #   111 ADVy_TH
(PID.TID 0000.0001) SETDIAG: Allocate 26 x  4 Levels for Diagnostic #   109 ADVr_TH
(PID.TID 0000.0001) SETDIAG: Allocate 26 x  4 Levels for Diagnostic #   117 ADVx_SLT
(PID.TID 0000.0001) SETDIAG: Allocate 26 x  4 Levels for Diagnostic #   118 ADVy_SLT
(PID.TID 0000.0001) SETDIAG: Allocate 26 x  4 Levels for Diagnostic #   116 ADVr_SLT
(PID.TID 0000.0001)   space allocated for all diagnostics:    2272 levels
(PID.TID 0000.0001)   set mate pointer for diag #   216  AtPhTauX , Parms: UM      L1 , mate:   217
(PID.TID 0000.0001)   set mate pointer for diag #   217  AtPhTauY , Parms: VM      L1 , mate:   216
(PID.TID 0000.0001)   set mate pointer for diag #    29  UVEL     , Parms: UUR     MR , mate:    30
(PID.TID 0000.0001)   set mate pointer for diag #    30  VVEL     , Parms: VVR     MR , mate:    29
(PID.TID 0000.0001)   set mate pointer for diag #    34  UVELSQ   , Parms: UURP    MR , mate:    35
(PID.TID 0000.0001)   set mate pointer for diag #    35  VVELSQ   , Parms: VVRP    MR , mate:    34
(PID.TID 0000.0001)   set mate pointer for diag #    43  UVELMASS , Parms: UUr     MR , mate:    44
(PID.TID 0000.0001)   set mate pointer for diag #    44  VVELMASS , Parms: VVr     MR , mate:    43
(PID.TID 0000.0001)   set mate pointer for diag #    39  UV_VEL_C , Parms: UMR     MR , mate:    39
(PID.TID 0000.0001)   set mate pointer for diag #   110  ADVx_TH  , Parms: UU      MR , mate:   111
(PID.TID 0000.0001)   set mate pointer for diag #   111  ADVy_TH  , Parms: VV      MR , mate:   110
(PID.TID 0000.0001)   set mate pointer for diag #   117  ADVx_SLT , Parms: UU      MR , mate:   118
(PID.TID 0000.0001)   set mate pointer for diag #   118  ADVy_SLT , Parms: VV      MR , mate:   117
(PID.TID 0000.0001) DIAGNOSTICS_SET_POINTERS: Set levels for Outp.Stream: surfDiag
(PID.TID 0000.0001)  Levels:       1.
(PID.TID 0000.0001) DIAGNOSTICS_SET_POINTERS: Set levels for Outp.Stream: dynDiag
(PID.TID 0000.0001)  Levels:       1.   2.   3.   4.   5.   6.   7.   8.   9.  10.  11.  12.  13.  14.  15.  16.  17.  18.  19.  20.
(PID.TID 0000.0001)  Levels:      21.  22.  23.  24.  25.  26.
(PID.TID 0000.0001) DIAGNOSTICS_SET_POINTERS: done
(PID.TID 0000.0001) ------------------------------------------------------------
(PID.TID 0000.0001) DIAGSTATS_SET_REGIONS: define no region
(PID.TID 0000.0001) ------------------------------------------------------------
(PID.TID 0000.0001) SETDIAG: Allocate  1 Levels for Stats-Diag #    23 ETAN
(PID.TID 0000.0001) SETDIAG: Allocate 26 Levels for Stats-Diag #    26 THETA
(PID.TID 0000.0001) SETDIAG: Allocate 26 Levels for Stats-Diag #    27 SALT
(PID.TID 0000.0001) SETDIAG: Allocate 26 Levels for Stats-Diag #    28 RELHUM
(PID.TID 0000.0001) SETDIAG: Allocate 26 Levels for Stats-Diag #    37 UE_VEL_C
(PID.TID 0000.0001) SETDIAG: Allocate 26 Levels for Stats-Diag #    38 VN_VEL_C
(PID.TID 0000.0001) SETDIAG: Allocate 26 Levels for Stats-Diag #    31 WVEL
(PID.TID 0000.0001) SETDIAG: Allocate 26 Levels for Stats-Diag #   193 AtPhdTdt
(PID.TID 0000.0001) SETDIAG: Allocate 26 Levels for Stats-Diag #   194 AtPhdQdt
(PID.TID 0000.0001) SETDIAG: Allocate 26 Levels for Stats-Diag #   195 AtPhdUdt
(PID.TID 0000.0001) SETDIAG: Allocate 26 Levels for Stats-Diag #   196 AtPhdVdt
(PID.TID 0000.0001) SETDIAG: Allocate 26 Levels for Stats-Diag #   197 AtPhDifT
(PID.TID 0000.0001) SETDIAG: Allocate 26 Levels for Stats-Diag #   198 AtPhDifM
(PID.TID 0000.0001) SETDIAG: Allocate 26 Levels for Stats-Diag #   229 AtPhDisH
(PID.TID 0000.0001) SETDIAG: Allocate 26 Levels for Stats-Diag #   227 AtPhdtTg
(PID.TID 0000.0001) SETDIAG: Allocate 26 Levels for Stats-Diag #   228 AtPhdtQg
(PID.TID 0000.0001) SETDIAG: Allocate 26 Levels for Stats-Diag #   191 SHAP_dKE
(PID.TID 0000.0001) SETDIAG: Allocate 26 Levels for Stats-Diag #    99 MoistCor
(PID.TID 0000.0001) SETDIAG: Allocate  1 Levels for Stats-Diag #   214 AtPhSens
(PID.TID 0000.0001) SETDIAG: Allocate  1 Levels for Stats-Diag #   215 AtPhEvap
(PID.TID 0000.0001) SETDIAG: Allocate  1 Levels for Stats-Diag #   216 AtPhTauX
(PID.TID 0000.0001) SETDIAG: Allocate  1 Levels for Stats-Diag #   217 AtPhTauY
(PID.TID 0000.0001) SETDIAG: Allocate  1 Levels for Stats-Diag #   218 AtPhCAPE
(PID.TID 0000.0001) SETDIAG: Allocate  1 Levels for Stats-Diag #   199 AtPhCnvP
(PID.TID 0000.0001) SETDIAG: Allocate  1 Levels for Stats-Diag #   200 AtPhLscP
(PID.TID 0000.0001) SETDIAG: Allocate  1 Levels for Stats-Diag #   192 AtPh_SST
(PID.TID 0000.0001) SETDIAG: Allocate  1 Levels for Stats-Diag #   207 AtPhInSR
(PID.TID 0000.0001) SETDIAG: Allocate  1 Levels for Stats-Diag #   209 AtPhOLR
(PID.TID 0000.0001) SETDIAG: Allocate  1 Levels for Stats-Diag #   211 AtPhNSSR
(PID.TID 0000.0001) SETDIAG: Allocate  1 Levels for Stats-Diag #   212 AtPhDSLR
(PID.TID 0000.0001) SETDIAG: Allocate  1 Levels for Stats-Diag #   213 AtPhUSLR
(PID.TID 0000.0001)   space allocated for all stats-diags:     456 levels
(PID.TID 0000.0001) DIAGSTATS_SET_POINTERS: done
(PID.TID 0000.0001) ------------------------------------------------------------
(PID.TID 0000.0001) DIAGSTATS_INI_IO: open file: dynStDiag.0000000000.txt , unit=     9
(PID.TID 0000.0001) DIAGSTATS_INI_IO: open file: diffStDiag.0000000000.txt , unit=    10
(PID.TID 0000.0001) DIAGSTATS_INI_IO: open file: flxStDiag.0000000000.txt , unit=    16
(PID.TID 0000.0001) INI_GLOBAL_DOMAIN: Found  24 CS-corner Pts in the domain
(PID.TID 0000.0001) %MON fCori_max                    =   1.4574827780704E-04
(PID.TID 0000.0001) %MON fCori_min                    =  -1.4574827780704E-04
(PID.TID 0000.0001) %MON fCori_mean                   =   0.0000000000000E+00
(PID.TID 0000.0001) %MON fCori_sd                     =   8.4202189509968E-05
(PID.TID 0000.0001) %MON fCoriG_max                   =   1.4584247033981E-04
(PID.TID 0000.0001) %MON fCoriG_min                   =  -1.4584247033981E-04
(PID.TID 0000.0001) %MON fCoriG_mean                  =   2.2587545260115E-21
(PID.TID 0000.0001) %MON fCoriG_sd                    =   8.4202189509968E-05
(PID.TID 0000.0001) %MON fCoriCos_max                 =   1.4580166994612E-04
(PID.TID 0000.0001) %MON fCoriCos_min                 =   5.2407700865903E-06
(PID.TID 0000.0001) %MON fCoriCos_mean                =   1.1514045869113E-04
(PID.TID 0000.0001) %MON fCoriCos_sd                  =   3.0375849106513E-05
(PID.TID 0000.0001) INI_CG2D: CG2D normalisation factor =  9.9119603843467461E-06
(PID.TID 0000.0001) INI_CG2D: cg2dTolerance = 1.403820515321401E-10 (Area=5.0986421043E+14)
(PID.TID 0000.0001) 
(PID.TID 0000.0001) // =======================================================
(PID.TID 0000.0001) // Model configuration
(PID.TID 0000.0001) // =======================================================
(PID.TID 0000.0001) //
(PID.TID 0000.0001) // "Physical" paramters ( PARM01 in namelist )
(PID.TID 0000.0001) //
(PID.TID 0000.0001) buoyancyRelation = /* Type of relation to get Buoyancy */
(PID.TID 0000.0001)               'ATMOSPHERIC'
(PID.TID 0000.0001)     ;
(PID.TID 0000.0001) fluidIsAir   =  /* fluid major constituent is Air */
(PID.TID 0000.0001)                   T
(PID.TID 0000.0001)     ;
(PID.TID 0000.0001) fluidIsWater =  /* fluid major constituent is Water */
(PID.TID 0000.0001)                   F
(PID.TID 0000.0001)     ;
(PID.TID 0000.0001) usingPCoords =  /* use p (or p*) vertical coordinate */
(PID.TID 0000.0001)                   T
(PID.TID 0000.0001)     ;
(PID.TID 0000.0001) usingZCoords =  /* use z (or z*) vertical coordinate */
(PID.TID 0000.0001)                   F
(PID.TID 0000.0001)     ;
(PID.TID 0000.0001) tRef =   /* Reference temperature profile ( oC or K ) */
(PID.TID 0000.0001)                 2.951000000000000E+02,      /* K =  1 */
(PID.TID 0000.0001)                 2.952000000000000E+02,      /* K =  2 */
(PID.TID 0000.0001)                 2.954000000000000E+02,      /* K =  3 */
(PID.TID 0000.0001)                 2.956000000000000E+02,      /* K =  4 */
(PID.TID 0000.0001)                 2.960000000000000E+02,      /* K =  5 */
(PID.TID 0000.0001)                 2.966000000000000E+02,      /* K =  6 */
(PID.TID 0000.0001)                 2.973000000000000E+02,      /* K =  7 */
(PID.TID 0000.0001)                 2.982000000000000E+02,      /* K =  8 */
(PID.TID 0000.0001)                 2.993000000000000E+02,      /* K =  9 */
(PID.TID 0000.0001)                 3.006000000000000E+02,      /* K = 10 */
(PID.TID 0000.0001)                 3.024000000000000E+02,      /* K = 11 */
(PID.TID 0000.0001)                 3.059000000000000E+02,      /* K = 12 */
(PID.TID 0000.0001)                 3.118000000000000E+02,      /* K = 13 */
(PID.TID 0000.0001)                 3.218000000000000E+02,      /* K = 14 */
(PID.TID 0000.0001)                 3.383000000000000E+02,      /* K = 15 */
(PID.TID 0000.0001)                 3.595000000000000E+02,      /* K = 16 */
(PID.TID 0000.0001)                 3.828000000000000E+02,      /* K = 17 */
(PID.TID 0000.0001)                 4.086000000000000E+02,      /* K = 18 */
(PID.TID 0000.0001)                 4.375000000000000E+02,      /* K = 19 */
(PID.TID 0000.0001)                 4.706000000000000E+02,      /* K = 20 */
(PID.TID 0000.0001)                 5.092000000000000E+02,      /* K = 21 */
(PID.TID 0000.0001)                 5.558000000000000E+02,      /* K = 22 */
(PID.TID 0000.0001)                 6.149000000000000E+02,      /* K = 23 */
(PID.TID 0000.0001)                 6.963000000000000E+02,      /* K = 24 */
(PID.TID 0000.0001)                 8.272000000000000E+02,      /* K = 25 */
(PID.TID 0000.0001)                 1.153600000000000E+03       /* K = 26 */
(PID.TID 0000.0001)     ;
(PID.TID 0000.0001) sRef =   /* Reference salinity profile ( psu ) */
(PID.TID 0000.0001)    26 @  0.000000000000000E+00              /* K =  1: 26 */
(PID.TID 0000.0001)     ;
(PID.TID 0000.0001) useStrainTensionVisc= /* Use StrainTension Form of Viscous Operator */
(PID.TID 0000.0001)                   F
(PID.TID 0000.0001)     ;
(PID.TID 0000.0001) useVariableVisc = /* Use variable horizontal viscosity */
(PID.TID 0000.0001)                   F
(PID.TID 0000.0001)     ;
(PID.TID 0000.0001) useHarmonicVisc = /* Use harmonic horizontal viscosity */
(PID.TID 0000.0001)                   F
(PID.TID 0000.0001)     ;
(PID.TID 0000.0001) useBiharmonicVisc= /* Use biharmonic horiz.  viscosity */
(PID.TID 0000.0001)                   F
(PID.TID 0000.0001)     ;
(PID.TID 0000.0001) useSmag3D = /* Use isotropic 3-D Smagorinsky viscosity */
(PID.TID 0000.0001)                   F
(PID.TID 0000.0001)     ;
(PID.TID 0000.0001) viscAh  =   /* Lateral harmonic viscosity ( m^2/s ) */
(PID.TID 0000.0001)                 0.000000000000000E+00
(PID.TID 0000.0001)     ;
(PID.TID 0000.0001) viscA4  =   /* Lateral biharmonic viscosity ( m^4/s ) */
(PID.TID 0000.0001)                 0.000000000000000E+00
(PID.TID 0000.0001)     ;
(PID.TID 0000.0001) no_slip_sides =  /* Viscous BCs: No-slip sides */
(PID.TID 0000.0001)                   F
(PID.TID 0000.0001)     ;
(PID.TID 0000.0001) sideDragFactor = /* side-drag scaling factor (non-dim) */
(PID.TID 0000.0001)                 2.000000000000000E+00
(PID.TID 0000.0001)     ;
(PID.TID 0000.0001) viscArNr = /* vertical profile of vertical viscosity (Pa^2/s )*/
(PID.TID 0000.0001)    26 @  0.000000000000000E+00              /* K =  1: 26 */
(PID.TID 0000.0001)     ;
(PID.TID 0000.0001) no_slip_bottom =  /* Viscous BCs: No-slip bottom */
(PID.TID 0000.0001)                   F
(PID.TID 0000.0001)     ;
(PID.TID 0000.0001) bottomVisc_pCell = /* Partial-cell in bottom Visc. BC */
(PID.TID 0000.0001)                   F
(PID.TID 0000.0001)     ;
(PID.TID 0000.0001) bottomDragLinear = /* linear bottom-drag coefficient ( m/s ) */
(PID.TID 0000.0001)                 0.000000000000000E+00
(PID.TID 0000.0001)     ;
(PID.TID 0000.0001) bottomDragQuadratic = /* quadratic bottom-drag coefficient (-) */
(PID.TID 0000.0001)                 0.000000000000000E+00
(PID.TID 0000.0001)     ;
(PID.TID 0000.0001) selectBotDragQuadr = /* select quadratic bottom drag options */
(PID.TID 0000.0001)                      -1
(PID.TID 0000.0001)     ;
(PID.TID 0000.0001) diffKhT =   /* Laplacian diffusion of heat laterally ( m^2/s ) */
(PID.TID 0000.0001)                 0.000000000000000E+00
(PID.TID 0000.0001)     ;
(PID.TID 0000.0001) diffK4T =   /* Biharmonic diffusion of heat laterally ( m^4/s ) */
(PID.TID 0000.0001)                 0.000000000000000E+00
(PID.TID 0000.0001)     ;
(PID.TID 0000.0001) diffKhS =   /* Laplacian diffusion of salt laterally ( m^2/s ) */
(PID.TID 0000.0001)                 0.000000000000000E+00
(PID.TID 0000.0001)     ;
(PID.TID 0000.0001) diffK4S =   /* Biharmonic diffusion of salt laterally ( m^4/s ) */
(PID.TID 0000.0001)                 0.000000000000000E+00
(PID.TID 0000.0001)     ;
(PID.TID 0000.0001) diffKrNrT = /* vertical profile of vertical diffusion of Temp (Pa^2/s )*/
(PID.TID 0000.0001)    26 @  0.000000000000000E+00              /* K =  1: 26 */
(PID.TID 0000.0001)     ;
(PID.TID 0000.0001) diffKrNrS = /* vertical profile of vertical diffusion of Salt (Pa^2/s )*/
(PID.TID 0000.0001)    26 @  0.000000000000000E+00              /* K =  1: 26 */
(PID.TID 0000.0001)     ;
(PID.TID 0000.0001) diffKrBL79surf = /* Surface diffusion for Bryan and Lewis 79 ( m^2/s ) */
(PID.TID 0000.0001)                 0.000000000000000E+00
(PID.TID 0000.0001)     ;
(PID.TID 0000.0001) diffKrBL79deep = /* Deep diffusion for Bryan and Lewis 1979 ( m^2/s ) */
(PID.TID 0000.0001)                 0.000000000000000E+00
(PID.TID 0000.0001)     ;
(PID.TID 0000.0001) diffKrBL79scl = /* Depth scale for Bryan and Lewis 1979 ( m ) */
(PID.TID 0000.0001)                 2.000000000000000E+02
(PID.TID 0000.0001)     ;
(PID.TID 0000.0001) diffKrBL79Ho = /* Turning depth for Bryan and Lewis 1979 ( m ) */
(PID.TID 0000.0001)                -2.000000000000000E+03
(PID.TID 0000.0001)     ;
(PID.TID 0000.0001) ivdc_kappa = /* Implicit Vertical Diffusivity for Convection (Pa^2/s) */
(PID.TID 0000.0001)                 0.000000000000000E+00
(PID.TID 0000.0001)     ;
(PID.TID 0000.0001) hMixCriteria=  /* Criteria for mixed-layer diagnostic */
(PID.TID 0000.0001)                -8.000000000000000E-01
(PID.TID 0000.0001)     ;
(PID.TID 0000.0001) dRhoSmall =  /* Parameter for mixed-layer diagnostic */
(PID.TID 0000.0001)                 1.000000000000000E-06
(PID.TID 0000.0001)     ;
(PID.TID 0000.0001) hMixSmooth=  /* Smoothing parameter for mixed-layer diagnostic */
(PID.TID 0000.0001)                 0.000000000000000E+00
(PID.TID 0000.0001)     ;
(PID.TID 0000.0001) eosType =  /* Type of Equation of State */
(PID.TID 0000.0001)               'IDEALG'
(PID.TID 0000.0001)     ;
(PID.TID 0000.0001) celsius2K = /* 0 degree Celsius converted to Kelvin ( K ) */
(PID.TID 0000.0001)                 2.731500000000000E+02
(PID.TID 0000.0001)     ;
(PID.TID 0000.0001) atm_Rd =    /* gas constant for dry air ( J/kg/K ) */
(PID.TID 0000.0001)                 2.870400000000000E+02
(PID.TID 0000.0001)     ;
(PID.TID 0000.0001) atm_Cp =    /* specific heat (Cp) of dry air ( J/kg/K ) */
(PID.TID 0000.0001)                 1.004640000000000E+03
(PID.TID 0000.0001)     ;
(PID.TID 0000.0001) atm_kappa = /* kappa (=Rd/Cp ) of dry air */
(PID.TID 0000.0001)                 2.857142857142857E-01
(PID.TID 0000.0001)     ;
(PID.TID 0000.0001) atm_Rq =  /* water vap. specific vol. anomaly relative to dry air */
(PID.TID 0000.0001)                 6.078000000000000E-01
(PID.TID 0000.0001)     ;
(PID.TID 0000.0001) atm_Po =    /* standard reference pressure ( Pa ) */
(PID.TID 0000.0001)                 1.000000000000000E+05
(PID.TID 0000.0001)     ;
(PID.TID 0000.0001) thetaConst= /* constant reference for potential temperature ( K ) */
(PID.TID 0000.0001)                 2.951000000000000E+02
(PID.TID 0000.0001)     ;
(PID.TID 0000.0001) integr_GeoPot =  /* select how the geopotential is integrated */
(PID.TID 0000.0001)                       2
(PID.TID 0000.0001)     ;
(PID.TID 0000.0001) selectFindRoSurf=  /* select how Surf.Ref. pressure is defined */
(PID.TID 0000.0001)                       1
(PID.TID 0000.0001)     ;
(PID.TID 0000.0001) rhoConst  = /* Reference density (Boussinesq)  ( kg/m^3 ) */
(PID.TID 0000.0001)                 9.998000000000000E+02
(PID.TID 0000.0001)     ;
(PID.TID 0000.0001) rhoFacC = /* normalized Reference density @ cell-Center (-) */
(PID.TID 0000.0001)    26 @  1.000000000000000E+00              /* K =  1: 26 */
(PID.TID 0000.0001)     ;
(PID.TID 0000.0001) rhoFacF = /* normalized Reference density @ W-Interface (-) */
(PID.TID 0000.0001)    27 @  1.000000000000000E+00              /* K =  1: 27 */
(PID.TID 0000.0001)     ;
(PID.TID 0000.0001) rhoConstFresh = /* Fresh-water reference density ( kg/m^3 ) */
(PID.TID 0000.0001)                 9.998000000000000E+02
(PID.TID 0000.0001)     ;
(PID.TID 0000.0001) gravity =   /* Gravitational acceleration ( m/s^2 ) */
(PID.TID 0000.0001)                 9.800000000000001E+00
(PID.TID 0000.0001)     ;
(PID.TID 0000.0001) gBaro =   /* Barotropic gravity ( m/s^2 ) */
(PID.TID 0000.0001)                 9.800000000000001E+00
(PID.TID 0000.0001)     ;
(PID.TID 0000.0001) gravFacC = /* gravity factor (vs surf.) @ cell-Center (-) */
(PID.TID 0000.0001)    26 @  1.000000000000000E+00              /* K =  1: 26 */
(PID.TID 0000.0001)     ;
(PID.TID 0000.0001) gravFacF = /* gravity factor (vs surf.) @ W-Interface (-) */
(PID.TID 0000.0001)    27 @  1.000000000000000E+00              /* K =  1: 27 */
(PID.TID 0000.0001)     ;
(PID.TID 0000.0001) rotationPeriod =   /* Rotation Period ( s ) */
(PID.TID 0000.0001)                 8.616400000000000E+04
(PID.TID 0000.0001)     ;
(PID.TID 0000.0001) omega =   /* Angular velocity ( rad/s ) */
(PID.TID 0000.0001)                 7.292123516990375E-05
(PID.TID 0000.0001)     ;
(PID.TID 0000.0001) f0 =   /* Reference coriolis parameter ( 1/s ) */
(PID.TID 0000.0001)                 1.000000000000000E-04
(PID.TID 0000.0001)     ;
(PID.TID 0000.0001) beta =   /* Beta ( 1/(m.s) ) */
(PID.TID 0000.0001)                 9.999999999999999E-12
(PID.TID 0000.0001)     ;
(PID.TID 0000.0001) fPrime =   /* Second coriolis parameter ( 1/s ) */
(PID.TID 0000.0001)                 0.000000000000000E+00
(PID.TID 0000.0001)     ;
(PID.TID 0000.0001) rigidLid =   /* Rigid lid on/off flag */
(PID.TID 0000.0001)                   F
(PID.TID 0000.0001)     ;
(PID.TID 0000.0001) implicitFreeSurface =   /* Implicit free surface on/off flag */
(PID.TID 0000.0001)                   T
(PID.TID 0000.0001)     ;
(PID.TID 0000.0001) freeSurfFac =   /* Implicit free surface factor */
(PID.TID 0000.0001)                 1.000000000000000E+00
(PID.TID 0000.0001)     ;
(PID.TID 0000.0001) implicSurfPress =  /* Surface Pressure implicit factor (0-1)*/
(PID.TID 0000.0001)                 1.000000000000000E+00
(PID.TID 0000.0001)     ;
(PID.TID 0000.0001) implicDiv2DFlow =  /* Barot. Flow Div. implicit factor (0-1)*/
(PID.TID 0000.0001)                 1.000000000000000E+00
(PID.TID 0000.0001)     ;
(PID.TID 0000.0001) uniformLin_PhiSurf = /* use uniform Bo_surf on/off flag*/
(PID.TID 0000.0001)                   F
(PID.TID 0000.0001)     ;
(PID.TID 0000.0001) uniformFreeSurfLev = /* free-surface level-index is uniform */
(PID.TID 0000.0001)                   F
(PID.TID 0000.0001)     ;
(PID.TID 0000.0001) hFacMin =   /* minimum partial cell factor (hFac) */
(PID.TID 0000.0001)                 1.000000000000000E+00
(PID.TID 0000.0001)     ;
(PID.TID 0000.0001) hFacMinDr = /* minimum partial cell thickness (Pa) */
(PID.TID 0000.0001)                 0.000000000000000E+00
(PID.TID 0000.0001)     ;
(PID.TID 0000.0001) exactConserv =  /* Exact Volume Conservation on/off flag*/
(PID.TID 0000.0001)                   T
(PID.TID 0000.0001)     ;
(PID.TID 0000.0001) linFSConserveTr = /* Tracer correction for Lin Free Surface on/off flag*/
(PID.TID 0000.0001)                   F
(PID.TID 0000.0001)     ;
(PID.TID 0000.0001) nonlinFreeSurf = /* Non-linear Free Surf. options (-1,0,1,2,3)*/
(PID.TID 0000.0001)                       4
(PID.TID 0000.0001)      -1,0= Off ; 1,2,3= On, 2=+rescale gU,gV, 3=+update cg2d solv.
(PID.TID 0000.0001)     ;
(PID.TID 0000.0001) hFacInf =   /* lower threshold for hFac (nonlinFreeSurf only)*/
(PID.TID 0000.0001)                 2.000000000000000E-01
(PID.TID 0000.0001)     ;
(PID.TID 0000.0001) hFacSup =   /* upper threshold for hFac (nonlinFreeSurf only)*/
(PID.TID 0000.0001)                 2.000000000000000E+00
(PID.TID 0000.0001)     ;
(PID.TID 0000.0001) select_rStar = /* r* Vertical coord. options (=0 r coord.; >0 uses r*)*/
(PID.TID 0000.0001)                       2
(PID.TID 0000.0001)     ;
(PID.TID 0000.0001) useRealFreshWaterFlux = /* Real Fresh Water Flux on/off flag*/
(PID.TID 0000.0001)                   F
(PID.TID 0000.0001)     ;
(PID.TID 0000.0001) temp_EvPrRn = /* Temp. of Evap/Prec/R (UNSET=use local T)(oC)*/
(PID.TID 0000.0001)                 1.234567000000000E+05
(PID.TID 0000.0001)     ;
(PID.TID 0000.0001) salt_EvPrRn = /* Salin. of Evap/Prec/R (UNSET=use local S)(psu)*/
(PID.TID 0000.0001)                 0.000000000000000E+00
(PID.TID 0000.0001)     ;
(PID.TID 0000.0001) selectAddFluid = /* option for mass source/sink of fluid (=0: off) */
(PID.TID 0000.0001)                       0
(PID.TID 0000.0001)     ;
(PID.TID 0000.0001) temp_addMass = /* Temp. of addMass array (UNSET=use local T)(oC)*/
(PID.TID 0000.0001)                 1.234567000000000E+05
(PID.TID 0000.0001)     ;
(PID.TID 0000.0001) salt_addMass = /* Salin. of addMass array (UNSET=use local S)(psu)*/
(PID.TID 0000.0001)                 0.000000000000000E+00
(PID.TID 0000.0001)     ;
(PID.TID 0000.0001) convertFW2Salt = /* convert F.W. Flux to Salt Flux (-1=use local S)(psu)*/
(PID.TID 0000.0001)                 3.500000000000000E+01
(PID.TID 0000.0001)     ;
(PID.TID 0000.0001) use3Dsolver = /* use 3-D pressure solver on/off flag */
(PID.TID 0000.0001)                   F
(PID.TID 0000.0001)     ;
(PID.TID 0000.0001) nonHydrostatic =  /* Non-Hydrostatic on/off flag */
(PID.TID 0000.0001)                   F
(PID.TID 0000.0001)     ;
(PID.TID 0000.0001) nh_Am2 = /* Non-Hydrostatic terms scaling factor */
(PID.TID 0000.0001)                 1.000000000000000E+00
(PID.TID 0000.0001)     ;
(PID.TID 0000.0001) implicitNHPress = /* Non-Hyd Pressure implicit factor (0-1)*/
(PID.TID 0000.0001)                 1.000000000000000E+00
(PID.TID 0000.0001)     ;
(PID.TID 0000.0001) selectNHfreeSurf = /* Non-Hyd (free-)Surface option */
(PID.TID 0000.0001)                       0
(PID.TID 0000.0001)     ;
(PID.TID 0000.0001) quasiHydrostatic = /* Quasi-Hydrostatic on/off flag */
(PID.TID 0000.0001)                   F
(PID.TID 0000.0001)     ;
(PID.TID 0000.0001) calc_wVelocity = /* vertical velocity calculation on/off flag */
(PID.TID 0000.0001)                   T
(PID.TID 0000.0001)     ;
(PID.TID 0000.0001) momStepping =  /* Momentum equation on/off flag */
(PID.TID 0000.0001)                   T
(PID.TID 0000.0001)     ;
(PID.TID 0000.0001) vectorInvariantMomentum= /* Vector-Invariant Momentum on/off */
(PID.TID 0000.0001)                   T
(PID.TID 0000.0001)     ;
(PID.TID 0000.0001) momAdvection =  /* Momentum advection on/off flag */
(PID.TID 0000.0001)                   T
(PID.TID 0000.0001)     ;
(PID.TID 0000.0001) momViscosity =  /* Momentum viscosity on/off flag */
(PID.TID 0000.0001)                   T
(PID.TID 0000.0001)     ;
(PID.TID 0000.0001) momImplVertAdv= /* Momentum implicit vert. advection on/off*/
(PID.TID 0000.0001)                   F
(PID.TID 0000.0001)     ;
(PID.TID 0000.0001) implicitViscosity = /* Implicit viscosity on/off flag */
(PID.TID 0000.0001)                   F
(PID.TID 0000.0001)     ;
(PID.TID 0000.0001) selectImplicitDrag= /* Implicit bot Drag options (0,1,2)*/
(PID.TID 0000.0001)                       0
(PID.TID 0000.0001)     0= Expl. ; 1= Impl. on provis. Vel ; 2= Fully Impl (with surf.P)
(PID.TID 0000.0001)     ;
(PID.TID 0000.0001) metricTerms =  /* metric-Terms on/off flag */
(PID.TID 0000.0001)                   F
(PID.TID 0000.0001)     ;
(PID.TID 0000.0001) useNHMTerms = /* Non-Hydrostatic Metric-Terms on/off */
(PID.TID 0000.0001)                   F
(PID.TID 0000.0001)     ;
(PID.TID 0000.0001) selectCoriMap = /* Coriolis Map options (0,1,2,3)*/
(PID.TID 0000.0001)                       2
(PID.TID 0000.0001)     0= f-Plane ; 1= Beta-Plane ; 2= Spherical ; 3= read from file
(PID.TID 0000.0001)     ;
(PID.TID 0000.0001) use3dCoriolis = /* 3-D Coriolis on/off flag */
(PID.TID 0000.0001)                   F
(PID.TID 0000.0001)     ;
(PID.TID 0000.0001) useCoriolis =  /* Coriolis on/off flag */
(PID.TID 0000.0001)                   T
(PID.TID 0000.0001)     ;
(PID.TID 0000.0001) useCDscheme =  /* CD scheme on/off flag */
(PID.TID 0000.0001)                   F
(PID.TID 0000.0001)     ;
(PID.TID 0000.0001) useEnergyConservingCoriolis= /* Flx-Form Coriolis scheme flag */
(PID.TID 0000.0001)                   F
(PID.TID 0000.0001)     ;
(PID.TID 0000.0001) useJamartWetPoints= /* Coriolis WetPoints method flag */
(PID.TID 0000.0001)                   F
(PID.TID 0000.0001)     ;
(PID.TID 0000.0001) useJamartMomAdv= /* V.I Non-linear terms Jamart flag */
(PID.TID 0000.0001)                   F
(PID.TID 0000.0001)     ;
(PID.TID 0000.0001) useAbsVorticity= /* V.I Works with f+zeta in Coriolis */
(PID.TID 0000.0001)                   T
(PID.TID 0000.0001)     ;
(PID.TID 0000.0001) selectVortScheme= /* V.I Scheme selector for Vorticity-Term */
(PID.TID 0000.0001)                       3
(PID.TID 0000.0001)    = 0 : enstrophy (Shallow-Water Eq.) conserving scheme by Sadourny, JAS 75
(PID.TID 0000.0001)    = 1 : same as 0 with modified hFac
(PID.TID 0000.0001)    = 2 : energy conserving scheme (used by Sadourny in JAS 75 paper)
(PID.TID 0000.0001)    = 3 : energy (general) and enstrophy (2D, nonDiv.) conserving scheme
(PID.TID 0000.0001)          from Sadourny (Burridge & Haseler, ECMWF Rep.4, 1977)
(PID.TID 0000.0001)     ;
(PID.TID 0000.0001) upwindVorticity= /* V.I Upwind bias vorticity flag */
(PID.TID 0000.0001)                   F
(PID.TID 0000.0001)     ;
(PID.TID 0000.0001) highOrderVorticity= /* V.I High order vort. advect. flag */
(PID.TID 0000.0001)                   F
(PID.TID 0000.0001)     ;
(PID.TID 0000.0001) upwindShear= /* V.I Upwind vertical Shear advection flag */
(PID.TID 0000.0001)                   F
(PID.TID 0000.0001)     ;
(PID.TID 0000.0001) selectKEscheme= /* V.I Kinetic Energy scheme selector */
(PID.TID 0000.0001)                       3
(PID.TID 0000.0001)     ;
(PID.TID 0000.0001) momForcing =  /* Momentum forcing on/off flag */
(PID.TID 0000.0001)                   T
(PID.TID 0000.0001)     ;
(PID.TID 0000.0001) momPressureForcing =  /* Momentum pressure term on/off flag */
(PID.TID 0000.0001)                   T
(PID.TID 0000.0001)     ;
(PID.TID 0000.0001) implicitIntGravWave= /* Implicit Internal Gravity Wave flag */
(PID.TID 0000.0001)                   F
(PID.TID 0000.0001)     ;
(PID.TID 0000.0001) staggerTimeStep =    /* Stagger time stepping on/off flag */
(PID.TID 0000.0001)                   T
(PID.TID 0000.0001)     ;
(PID.TID 0000.0001) doResetHFactors = /* reset thickness factors @ each time-step */
(PID.TID 0000.0001)                   F
(PID.TID 0000.0001)     ;
(PID.TID 0000.0001) multiDimAdvection =  /* enable/disable Multi-Dim Advection */
(PID.TID 0000.0001)                   T
(PID.TID 0000.0001)     ;
(PID.TID 0000.0001) useMultiDimAdvec =   /* Multi-Dim Advection is/is-not used */
(PID.TID 0000.0001)                   T
(PID.TID 0000.0001)     ;
(PID.TID 0000.0001) implicitDiffusion = /* Implicit Diffusion on/off flag */
(PID.TID 0000.0001)                   F
(PID.TID 0000.0001)     ;
(PID.TID 0000.0001) tempStepping =  /* Temperature equation on/off flag */
(PID.TID 0000.0001)                   T
(PID.TID 0000.0001)     ;
(PID.TID 0000.0001) tempAdvection = /* Temperature advection on/off flag */
(PID.TID 0000.0001)                   T
(PID.TID 0000.0001)     ;
(PID.TID 0000.0001) tempImplVertAdv = /* Temp. implicit vert. advection on/off */
(PID.TID 0000.0001)                   F
(PID.TID 0000.0001)     ;
(PID.TID 0000.0001) tempForcing  =  /* Temperature forcing on/off flag */
(PID.TID 0000.0001)                   T
(PID.TID 0000.0001)     ;
(PID.TID 0000.0001) addFrictionHeating= /* account for frictional heating */
(PID.TID 0000.0001)                   T
(PID.TID 0000.0001)     ;
(PID.TID 0000.0001) doThetaClimRelax = /* apply SST relaxation on/off flag */
(PID.TID 0000.0001)                   F
(PID.TID 0000.0001)     ;
(PID.TID 0000.0001) tempIsActiveTr = /* Temp. is a dynamically Active Tracer */
(PID.TID 0000.0001)                   T
(PID.TID 0000.0001)     ;
(PID.TID 0000.0001) saltStepping =  /* Salinity equation on/off flag */
(PID.TID 0000.0001)                   T
(PID.TID 0000.0001)     ;
(PID.TID 0000.0001) saltAdvection = /* Salinity advection on/off flag */
(PID.TID 0000.0001)                   T
(PID.TID 0000.0001)     ;
(PID.TID 0000.0001) saltImplVertAdv = /* Sali. implicit vert. advection on/off */
(PID.TID 0000.0001)                   F
(PID.TID 0000.0001)     ;
(PID.TID 0000.0001) saltForcing  =  /* Salinity forcing on/off flag */
(PID.TID 0000.0001)                   T
(PID.TID 0000.0001)     ;
(PID.TID 0000.0001) doSaltClimRelax = /* apply SSS relaxation on/off flag */
(PID.TID 0000.0001)                   F
(PID.TID 0000.0001)     ;
(PID.TID 0000.0001) saltIsActiveTr = /* Salt  is a dynamically Active Tracer */
(PID.TID 0000.0001)                   T
(PID.TID 0000.0001)     ;
(PID.TID 0000.0001)  readBinaryPrec = /* Precision used for reading binary files */
(PID.TID 0000.0001)                      64
(PID.TID 0000.0001)     ;
(PID.TID 0000.0001) writeBinaryPrec = /* Precision used for writing binary files */
(PID.TID 0000.0001)                      64
(PID.TID 0000.0001)     ;
(PID.TID 0000.0001)  rwSuffixType =   /* select format of mds file suffix */
(PID.TID 0000.0001)                       0
(PID.TID 0000.0001)    = 0 : myIter (I10.10) ;   = 1 : 100*myTime (100th sec) ;
(PID.TID 0000.0001)    = 2 : myTime (seconds);   = 3 : myTime/360 (10th of hr);
(PID.TID 0000.0001)    = 4 : myTime/3600 (hours)
(PID.TID 0000.0001)     ;
(PID.TID 0000.0001)  globalFiles = /* write "global" (=not per tile) files */
(PID.TID 0000.0001)                   F
(PID.TID 0000.0001)     ;
(PID.TID 0000.0001)  useSingleCpuIO = /* only master MPI process does I/O */
(PID.TID 0000.0001)                   F
(PID.TID 0000.0001)     ;
(PID.TID 0000.0001)  useSingleCpuInput = /* only master process reads input */
(PID.TID 0000.0001)                   F
(PID.TID 0000.0001)     ;
(PID.TID 0000.0001) /* debLev[*]  : level of debug & auxiliary message printing */
(PID.TID 0000.0001) debLevZero =  0 ; /* level of disabled aux. msg printing */
(PID.TID 0000.0001)    debLevA =  1 ; /* level of minimum  aux. msg printing */
(PID.TID 0000.0001)    debLevB =  2 ; /* level of low aux. print (report read-file opening)*/
(PID.TID 0000.0001)    debLevC =  3 ; /* level of moderate debug prt (most pkgs debug msg) */
(PID.TID 0000.0001)    debLevD =  4 ; /* level of enhanced debug prt (add DEBUG_STATS prt) */
(PID.TID 0000.0001)    debLevE =  5 ; /* level of extensive debug printing */
(PID.TID 0000.0001) debugLevel =  /* select debug printing level */
(PID.TID 0000.0001)                       2
(PID.TID 0000.0001)     ;
(PID.TID 0000.0001)  plotLevel =  /* select PLOT_FIELD printing level */
(PID.TID 0000.0001)                       0
(PID.TID 0000.0001)     ;
(PID.TID 0000.0001) //
(PID.TID 0000.0001) // Elliptic solver(s) paramters ( PARM02 in namelist )
(PID.TID 0000.0001) //
(PID.TID 0000.0001) cg2dMaxIters =   /* Upper limit on 2d con. grad iterations  */
(PID.TID 0000.0001)                     200
(PID.TID 0000.0001)     ;
(PID.TID 0000.0001) cg2dChkResFreq =   /* 2d con. grad convergence test frequency */
(PID.TID 0000.0001)                       1
(PID.TID 0000.0001)     ;
(PID.TID 0000.0001) cg2dUseMinResSol= /* use cg2d last-iter(=0) / min-resid.(=1) solution */
(PID.TID 0000.0001)                       0
(PID.TID 0000.0001)     ;
(PID.TID 0000.0001) cg2dTargetResidual =   /* 2d con. grad target residual  */
(PID.TID 0000.0001)                 1.000000000000000E-07
(PID.TID 0000.0001)     ;
(PID.TID 0000.0001) cg2dTargetResWunit =   /* CG2d target residual [W units] */
(PID.TID 0000.0001)                 1.000000000000000E-17
(PID.TID 0000.0001)     ;
(PID.TID 0000.0001) cg2dPreCondFreq =   /* Freq. for updating cg2d preconditioner */
(PID.TID 0000.0001)                       1
(PID.TID 0000.0001)     ;
(PID.TID 0000.0001) useSRCGSolver =  /* use single reduction CG solver(s) */
(PID.TID 0000.0001)                   F
(PID.TID 0000.0001)     ;
(PID.TID 0000.0001) printResidualFreq = /* Freq. for printing CG residual */
(PID.TID 0000.0001)                       0
(PID.TID 0000.0001)     ;
(PID.TID 0000.0001) //
(PID.TID 0000.0001) // Time stepping paramters ( PARM03 in namelist )
(PID.TID 0000.0001) //
(PID.TID 0000.0001) deltaTMom =   /* Momentum equation timestep ( s ) */
(PID.TID 0000.0001)                 3.600000000000000E+02
(PID.TID 0000.0001)     ;
(PID.TID 0000.0001) deltaTFreeSurf = /* FreeSurface equation timestep ( s ) */
(PID.TID 0000.0001)                 3.600000000000000E+02
(PID.TID 0000.0001)     ;
(PID.TID 0000.0001) dTtracerLev =  /* Tracer equation timestep ( s ) */
(PID.TID 0000.0001)    26 @  3.600000000000000E+02              /* K =  1: 26 */
(PID.TID 0000.0001)     ;
(PID.TID 0000.0001) deltaTClock  =   /* Model clock timestep ( s ) */
(PID.TID 0000.0001)                 3.600000000000000E+02
(PID.TID 0000.0001)     ;
(PID.TID 0000.0001) cAdjFreq =   /* Convective adjustment interval ( s ) */
(PID.TID 0000.0001)                 0.000000000000000E+00
(PID.TID 0000.0001)     ;
(PID.TID 0000.0001) momForcingOutAB = /* =1: take Momentum Forcing out of Adams-Bash. stepping */
(PID.TID 0000.0001)                       1
(PID.TID 0000.0001)     ;
(PID.TID 0000.0001) tracForcingOutAB = /* =1: take T,S,pTr Forcing out of Adams-Bash. stepping */
(PID.TID 0000.0001)                       1
(PID.TID 0000.0001)     ;
(PID.TID 0000.0001) momDissip_In_AB = /* put Dissipation Tendency in Adams-Bash. stepping */
(PID.TID 0000.0001)                   T
(PID.TID 0000.0001)     ;
(PID.TID 0000.0001) doAB_onGtGs = /* apply AB on Tendencies (rather than on T,S)*/
(PID.TID 0000.0001)                   T
(PID.TID 0000.0001)     ;
(PID.TID 0000.0001) abEps =   /* Adams-Bashforth-2 stabilizing weight */
(PID.TID 0000.0001)                 1.000000000000000E-01
(PID.TID 0000.0001)     ;
(PID.TID 0000.0001) applyExchUV_early = /* Apply EXCH to U,V earlier in time-step */
(PID.TID 0000.0001)                   F
(PID.TID 0000.0001)     ;
(PID.TID 0000.0001) pickupStrictlyMatch= /* stop if pickup do not strictly match */
(PID.TID 0000.0001)                   T
(PID.TID 0000.0001)     ;
(PID.TID 0000.0001) nIter0   =   /* Run starting timestep number */
(PID.TID 0000.0001)                       0
(PID.TID 0000.0001)     ;
(PID.TID 0000.0001) nTimeSteps = /* Number of timesteps */
(PID.TID 0000.0001)                      40
(PID.TID 0000.0001)     ;
(PID.TID 0000.0001) nEndIter =   /* Run ending timestep number */
(PID.TID 0000.0001)                      40
(PID.TID 0000.0001)     ;
(PID.TID 0000.0001) baseTime =   /* Model base time ( s ) */
(PID.TID 0000.0001)                 0.000000000000000E+00
(PID.TID 0000.0001)     ;
(PID.TID 0000.0001) startTime =  /* Run start time ( s ) */
(PID.TID 0000.0001)                 0.000000000000000E+00
(PID.TID 0000.0001)     ;
(PID.TID 0000.0001) endTime  =   /* Integration ending time ( s ) */
(PID.TID 0000.0001)                 1.440000000000000E+04
(PID.TID 0000.0001)     ;
(PID.TID 0000.0001) pChkPtFreq = /* Permanent restart/pickup file interval ( s ) */
(PID.TID 0000.0001)                 2.488320000000000E+08
(PID.TID 0000.0001)     ;
(PID.TID 0000.0001) chkPtFreq  = /* Rolling restart/pickup file interval ( s ) */
(PID.TID 0000.0001)                 6.220800000000000E+07
(PID.TID 0000.0001)     ;
(PID.TID 0000.0001) pickup_write_mdsio =   /* Model IO flag. */
(PID.TID 0000.0001)                   T
(PID.TID 0000.0001)     ;
(PID.TID 0000.0001) pickup_read_mdsio =   /* Model IO flag. */
(PID.TID 0000.0001)                   T
(PID.TID 0000.0001)     ;
(PID.TID 0000.0001) writePickupAtEnd =   /* Model IO flag. */
(PID.TID 0000.0001)                   T
(PID.TID 0000.0001)     ;
(PID.TID 0000.0001) dumpFreq =   /* Model state write out interval ( s ). */
(PID.TID 0000.0001)                 3.110400000000000E+07
(PID.TID 0000.0001)     ;
(PID.TID 0000.0001) dumpInitAndLast= /* write out Initial & Last iter. model state */
(PID.TID 0000.0001)                   T
(PID.TID 0000.0001)     ;
(PID.TID 0000.0001) snapshot_mdsio =   /* Model IO flag. */
(PID.TID 0000.0001)                   T
(PID.TID 0000.0001)     ;
(PID.TID 0000.0001) monitorFreq =   /* Monitor output interval ( s ). */
(PID.TID 0000.0001)                 1.000000000000000E+00
(PID.TID 0000.0001)     ;
(PID.TID 0000.0001) monitorSelect = /* select group of variables to monitor */
(PID.TID 0000.0001)                       2
(PID.TID 0000.0001)     ;
(PID.TID 0000.0001) monitor_stdio =   /* Model IO flag. */
(PID.TID 0000.0001)                   T
(PID.TID 0000.0001)     ;
(PID.TID 0000.0001) externForcingPeriod =   /* forcing period (s) */
(PID.TID 0000.0001)                 0.000000000000000E+00
(PID.TID 0000.0001)     ;
(PID.TID 0000.0001) externForcingCycle =   /* period of the cyle (s). */
(PID.TID 0000.0001)                 0.000000000000000E+00
(PID.TID 0000.0001)     ;
(PID.TID 0000.0001) tauThetaClimRelax =   /* relaxation time scale (s) */
(PID.TID 0000.0001)                 0.000000000000000E+00
(PID.TID 0000.0001)     ;
(PID.TID 0000.0001) tauSaltClimRelax =   /* relaxation time scale (s) */
(PID.TID 0000.0001)                 0.000000000000000E+00
(PID.TID 0000.0001)     ;
(PID.TID 0000.0001) latBandClimRelax =   /* max. Lat. where relaxation */
(PID.TID 0000.0001)                 1.800000000000000E+02
(PID.TID 0000.0001)     ;
(PID.TID 0000.0001) //
(PID.TID 0000.0001) // Gridding paramters ( PARM04 in namelist )
(PID.TID 0000.0001) //
(PID.TID 0000.0001) usingCartesianGrid = /* Cartesian coordinates flag ( True/False ) */
(PID.TID 0000.0001)                   F
(PID.TID 0000.0001)     ;
(PID.TID 0000.0001) usingCylindricalGrid = /* Cylindrical coordinates flag ( True/False ) */
(PID.TID 0000.0001)                   F
(PID.TID 0000.0001)     ;
(PID.TID 0000.0001) usingSphericalPolarGrid = /* Spherical coordinates flag ( True/False ) */
(PID.TID 0000.0001)                   F
(PID.TID 0000.0001)     ;
(PID.TID 0000.0001) usingCurvilinearGrid = /* Curvilinear coordinates flag ( True/False ) */
(PID.TID 0000.0001)                   T
(PID.TID 0000.0001)     ;
(PID.TID 0000.0001) useMin4hFacEdges = /* set hFacW,S as minimum of adjacent hFacC factor */
(PID.TID 0000.0001)                   F
(PID.TID 0000.0001)     ;
(PID.TID 0000.0001) selectSigmaCoord = /* Hybrid-Sigma Vert. Coordinate option */
(PID.TID 0000.0001)                       0
(PID.TID 0000.0001)     ;
(PID.TID 0000.0001) rSigmaBnd = /* r/sigma transition ( units of r == Pa ) */
(PID.TID 0000.0001)                 1.234567000000000E+05
(PID.TID 0000.0001)     ;
(PID.TID 0000.0001) rkSign =   /* index orientation relative to vertical coordinate */
(PID.TID 0000.0001)                -1.000000000000000E+00
(PID.TID 0000.0001)     ;
(PID.TID 0000.0001) gravitySign = /* gravity orientation relative to vertical coordinate */
(PID.TID 0000.0001)                 1.000000000000000E+00
(PID.TID 0000.0001)     ;
(PID.TID 0000.0001) seaLev_Z =  /* reference height of sea-level [m] */
(PID.TID 0000.0001)                 0.000000000000000E+00
(PID.TID 0000.0001)     ;
(PID.TID 0000.0001) top_Pres =  /* pressure at the top (r-axis origin) [Pa] */
(PID.TID 0000.0001)                 0.000000000000000E+00
(PID.TID 0000.0001)     ;
(PID.TID 0000.0001) mass2rUnit = /* convert mass per unit area [kg/m2] to r-units [Pa] */
(PID.TID 0000.0001)                 9.800000000000001E+00
(PID.TID 0000.0001)     ;
(PID.TID 0000.0001) rUnit2mass = /* convert r-units [Pa] to mass per unit area [kg/m2] */
(PID.TID 0000.0001)                 1.020408163265306E-01
(PID.TID 0000.0001)     ;
(PID.TID 0000.0001) drC =   /* C spacing ( units of r ) */
(PID.TID 0000.0001)                 7.500000000000000E+02,      /* K =  1 */
(PID.TID 0000.0001)                 1.811000000000000E+03,      /* K =  2 */
(PID.TID 0000.0001)                 2.561000000000000E+03,      /* K =  3 */
(PID.TID 0000.0001)                 3.621000000000000E+03,      /* K =  4 */
(PID.TID 0000.0001)                 5.121000000000000E+03,      /* K =  5 */
(PID.TID 0000.0001)                 6.900000000000000E+03,      /* K =  6 */
(PID.TID 0000.0001)                 8.450000000000000E+03,      /* K =  7 */
(PID.TID 0000.0001)                 9.250000000000000E+03,      /* K =  8 */
(PID.TID 0000.0001)                 9.340000000000000E+03,      /* K =  9 */
(PID.TID 0000.0001)                 8.840000000000000E+03,      /* K = 10 */
(PID.TID 0000.0001)                 7.690000000000000E+03,      /* K = 11 */
(PID.TID 0000.0001)                 6.390000000000000E+03,      /* K = 12 */
(PID.TID 0000.0001)                 5.310000000000000E+03,      /* K = 13 */
(PID.TID 0000.0001)                 4.412000000000000E+03,      /* K = 14 */
(PID.TID 0000.0001)                 3.666000000000000E+03,      /* K = 15 */
(PID.TID 0000.0001)                 3.047000000000000E+03,      /* K = 16 */
(PID.TID 0000.0001)                 2.532000000000000E+03,      /* K = 17 */
(PID.TID 0000.0001)                 2.104000000000000E+03,      /* K = 18 */
(PID.TID 0000.0001)                 1.748000000000000E+03,      /* K = 19 */
(PID.TID 0000.0001)                 1.452000000000000E+03,      /* K = 20 */
(PID.TID 0000.0001)                 1.207000000000000E+03,      /* K = 21 */
(PID.TID 0000.0001)                 1.003000000000000E+03,      /* K = 22 */
(PID.TID 0000.0001)                 8.330000000000000E+02,      /* K = 23 */
(PID.TID 0000.0001)                 6.920000000000000E+02,      /* K = 24 */
(PID.TID 0000.0001)                 5.750000000000000E+02,      /* K = 25 */
(PID.TID 0000.0001)                 4.780000000000000E+02,      /* K = 26 */
(PID.TID 0000.0001)                 2.170000000000000E+02       /* K = 27 */
(PID.TID 0000.0001)     ;
(PID.TID 0000.0001) drF =   /* W spacing ( units of r ) */
(PID.TID 0000.0001)                 1.500000000000000E+03,      /* K =  1 */
(PID.TID 0000.0001)                 2.122000000000000E+03,      /* K =  2 */
(PID.TID 0000.0001)                 3.000000000000000E+03,      /* K =  3 */
(PID.TID 0000.0001)                 4.242000000000000E+03,      /* K =  4 */
(PID.TID 0000.0001)                 6.000000000000000E+03,      /* K =  5 */
(PID.TID 0000.0001)                 7.800000000000000E+03,      /* K =  6 */
(PID.TID 0000.0001)                 9.100000000000000E+03,      /* K =  7 */
(PID.TID 0000.0001)                 9.400000000000000E+03,      /* K =  8 */
(PID.TID 0000.0001)                 9.280000000000000E+03,      /* K =  9 */
(PID.TID 0000.0001)                 8.400000000000000E+03,      /* K = 10 */
(PID.TID 0000.0001)                 6.980000000000000E+03,      /* K = 11 */
(PID.TID 0000.0001)                 5.800000000000000E+03,      /* K = 12 */
(PID.TID 0000.0001)                 4.820000000000000E+03,      /* K = 13 */
(PID.TID 0000.0001)                 4.004000000000000E+03,      /* K = 14 */
(PID.TID 0000.0001)                 3.328000000000000E+03,      /* K = 15 */
(PID.TID 0000.0001)                 2.766000000000000E+03,      /* K = 16 */
(PID.TID 0000.0001)                 2.298000000000000E+03,      /* K = 17 */
(PID.TID 0000.0001)                 1.910000000000000E+03,      /* K = 18 */
(PID.TID 0000.0001)                 1.586000000000000E+03,      /* K = 19 */
(PID.TID 0000.0001)                 1.318000000000000E+03,      /* K = 20 */
(PID.TID 0000.0001)                 1.096000000000000E+03,      /* K = 21 */
(PID.TID 0000.0001)                 9.100000000000000E+02,      /* K = 22 */
(PID.TID 0000.0001)                 7.560000000000000E+02,      /* K = 23 */
(PID.TID 0000.0001)                 6.280000000000000E+02,      /* K = 24 */
(PID.TID 0000.0001)                 5.220000000000000E+02,      /* K = 25 */
(PID.TID 0000.0001)                 4.340000000000000E+02       /* K = 26 */
(PID.TID 0000.0001)     ;
(PID.TID 0000.0001) radius_fromHorizGrid = /* sphere Radius of input horiz. grid */
(PID.TID 0000.0001)                 6.370000000000000E+06
(PID.TID 0000.0001)     ;
(PID.TID 0000.0001) rSphere =  /* Radius ( ignored - cartesian, m - spherical ) */
(PID.TID 0000.0001)                 6.370000000000000E+06
(PID.TID 0000.0001)     ;
(PID.TID 0000.0001) deepAtmosphere = /* Deep/Shallow Atmosphere flag (True/False) */
(PID.TID 0000.0001)                   F
(PID.TID 0000.0001)     ;
(PID.TID 0000.0001) xC =  /* xC(:,1,:,1) : P-point X coord ( deg. or m if cartesian) */
(PID.TID 0000.0001)                -4.439521994760536E+01,      /* I =  1 */
(PID.TID 0000.0001)                -4.295641272275883E+01,      /* I =  2 */
(PID.TID 0000.0001)                -4.122055553388957E+01,      /* I =  3 */
(PID.TID 0000.0001)      . . .
(PID.TID 0000.0001)                 8.070819219728060E+01,      /* I = 46 */
(PID.TID 0000.0001)                 8.439652466417766E+01,      /* I = 47 */
(PID.TID 0000.0001)                 8.812739148696656E+01,      /* I = 48 */
(PID.TID 0000.0001)                 9.187260851303344E+01,      /* I = 49 */
(PID.TID 0000.0001)                 9.560347533582234E+01,      /* I = 50 */
(PID.TID 0000.0001)                 9.929180780271940E+01,      /* I = 51 */
(PID.TID 0000.0001)      . . .
(PID.TID 0000.0001)                 1.321863035748696E+02,      /* I = 94 */
(PID.TID 0000.0001)                 1.337919453120370E+02,      /* I = 95 */
(PID.TID 0000.0001)                 1.350000000000000E+02,      /* I = 96 */
(PID.TID 0000.0001)                 1.356047800523947E+02,      /* I = 97 */
(PID.TID 0000.0001)                 1.358367907661329E+02,      /* I = 98 */
(PID.TID 0000.0001)                 1.359720382181193E+02,      /* I = 99 */
(PID.TID 0000.0001)      . . .
(PID.TID 0000.0001)                -1.336511021209287E+02,      /* I =142 */
(PID.TID 0000.0001)                -1.336469399409420E+02,      /* I =143 */
(PID.TID 0000.0001)                -1.336449032499283E+02,      /* I =144 */
(PID.TID 0000.0001)                -1.336449032499283E+02,      /* I =145 */
(PID.TID 0000.0001)                -1.336469399409420E+02,      /* I =146 */
(PID.TID 0000.0001)                -1.336511021209287E+02,      /* I =147 */
(PID.TID 0000.0001)      . . .
(PID.TID 0000.0001)                 1.378136964251304E+02,      /* I =190 */
(PID.TID 0000.0001)                 1.362080546879630E+02,      /* I =191 */
(PID.TID 0000.0001)                 1.350000000000000E+02       /* I =192 */
(PID.TID 0000.0001)     ;
(PID.TID 0000.0001) yC =  /* yC(1,:,1,:) : P-point Y coord ( deg. or m if cartesian) */
(PID.TID 0000.0001)                -3.497677942598243E+01,      /* J =  1 */
(PID.TID 0000.0001)                -3.374005967394886E+01,      /* J =  2 */
(PID.TID 0000.0001)                -3.220655175667454E+01,      /* J =  3 */
(PID.TID 0000.0001)                -3.045756348838641E+01,      /* J =  4 */
(PID.TID 0000.0001)                -2.853728129852918E+01,      /* J =  5 */
(PID.TID 0000.0001)                -2.647426640173173E+01,      /* J =  6 */
(PID.TID 0000.0001)                -2.428936657094636E+01,      /* J =  7 */
(PID.TID 0000.0001)                -2.199915808312262E+01,      /* J =  8 */
(PID.TID 0000.0001)                -1.961768597440146E+01,      /* J =  9 */
(PID.TID 0000.0001)                -1.715743888281371E+01,      /* J = 10 */
(PID.TID 0000.0001)                -1.462993396899330E+01,      /* J = 11 */
(PID.TID 0000.0001)                -1.204608340464756E+01,      /* J = 12 */
(PID.TID 0000.0001)                -9.416429130284818E+00,      /* J = 13 */
(PID.TID 0000.0001)                -6.751293662992216E+00,      /* J = 14 */
(PID.TID 0000.0001)                -4.060875511835959E+00,      /* J = 15 */
(PID.TID 0000.0001)                -1.355307764409121E+00,      /* J = 16 */
(PID.TID 0000.0001)                 1.355307764409121E+00,      /* J = 17 */
(PID.TID 0000.0001)                 4.060875511835959E+00,      /* J = 18 */
(PID.TID 0000.0001)                 6.751293662992216E+00,      /* J = 19 */
(PID.TID 0000.0001)                 9.416429130284818E+00,      /* J = 20 */
(PID.TID 0000.0001)                 1.204608340464756E+01,      /* J = 21 */
(PID.TID 0000.0001)                 1.462993396899330E+01,      /* J = 22 */
(PID.TID 0000.0001)                 1.715743888281371E+01,      /* J = 23 */
(PID.TID 0000.0001)                 1.961768597440146E+01,      /* J = 24 */
(PID.TID 0000.0001)                 2.199915808312262E+01,      /* J = 25 */
(PID.TID 0000.0001)                 2.428936657094636E+01,      /* J = 26 */
(PID.TID 0000.0001)                 2.647426640173173E+01,      /* J = 27 */
(PID.TID 0000.0001)                 2.853728129852918E+01,      /* J = 28 */
(PID.TID 0000.0001)                 3.045756348838641E+01,      /* J = 29 */
(PID.TID 0000.0001)                 3.220655175667454E+01,      /* J = 30 */
(PID.TID 0000.0001)                 3.374005967394886E+01,      /* J = 31 */
(PID.TID 0000.0001)                 3.497677942598243E+01       /* J = 32 */
(PID.TID 0000.0001)     ;
(PID.TID 0000.0001) rcoord = /* P-point R coordinate (  units of r ) */
(PID.TID 0000.0001)                 9.925000000000000E+04,      /* K =  1 */
(PID.TID 0000.0001)                 9.743900000000000E+04,      /* K =  2 */
(PID.TID 0000.0001)                 9.487800000000000E+04,      /* K =  3 */
(PID.TID 0000.0001)                 9.125700000000000E+04,      /* K =  4 */
(PID.TID 0000.0001)                 8.613600000000000E+04,      /* K =  5 */
(PID.TID 0000.0001)                 7.923600000000000E+04,      /* K =  6 */
(PID.TID 0000.0001)                 7.078600000000000E+04,      /* K =  7 */
(PID.TID 0000.0001)                 6.153600000000000E+04,      /* K =  8 */
(PID.TID 0000.0001)                 5.219600000000000E+04,      /* K =  9 */
(PID.TID 0000.0001)                 4.335600000000000E+04,      /* K = 10 */
(PID.TID 0000.0001)                 3.566600000000000E+04,      /* K = 11 */
(PID.TID 0000.0001)                 2.927600000000000E+04,      /* K = 12 */
(PID.TID 0000.0001)                 2.396600000000000E+04,      /* K = 13 */
(PID.TID 0000.0001)                 1.955400000000000E+04,      /* K = 14 */
(PID.TID 0000.0001)                 1.588800000000000E+04,      /* K = 15 */
(PID.TID 0000.0001)                 1.284100000000000E+04,      /* K = 16 */
(PID.TID 0000.0001)                 1.030900000000000E+04,      /* K = 17 */
(PID.TID 0000.0001)                 8.205000000000000E+03,      /* K = 18 */
(PID.TID 0000.0001)                 6.457000000000000E+03,      /* K = 19 */
(PID.TID 0000.0001)                 5.005000000000000E+03,      /* K = 20 */
(PID.TID 0000.0001)                 3.798000000000000E+03,      /* K = 21 */
(PID.TID 0000.0001)                 2.795000000000000E+03,      /* K = 22 */
(PID.TID 0000.0001)                 1.962000000000000E+03,      /* K = 23 */
(PID.TID 0000.0001)                 1.270000000000000E+03,      /* K = 24 */
(PID.TID 0000.0001)                 6.950000000000000E+02,      /* K = 25 */
(PID.TID 0000.0001)                 2.170000000000000E+02       /* K = 26 */
(PID.TID 0000.0001)     ;
(PID.TID 0000.0001) rF =   /* W-Interf. R coordinate (  units of r ) */
(PID.TID 0000.0001)                 1.000000000000000E+05,      /* K =  1 */
(PID.TID 0000.0001)                 9.850000000000000E+04,      /* K =  2 */
(PID.TID 0000.0001)                 9.637800000000000E+04,      /* K =  3 */
(PID.TID 0000.0001)                 9.337800000000000E+04,      /* K =  4 */
(PID.TID 0000.0001)                 8.913600000000000E+04,      /* K =  5 */
(PID.TID 0000.0001)                 8.313600000000000E+04,      /* K =  6 */
(PID.TID 0000.0001)                 7.533600000000000E+04,      /* K =  7 */
(PID.TID 0000.0001)                 6.623600000000000E+04,      /* K =  8 */
(PID.TID 0000.0001)                 5.683600000000000E+04,      /* K =  9 */
(PID.TID 0000.0001)                 4.755600000000000E+04,      /* K = 10 */
(PID.TID 0000.0001)                 3.915600000000000E+04,      /* K = 11 */
(PID.TID 0000.0001)                 3.217600000000000E+04,      /* K = 12 */
(PID.TID 0000.0001)                 2.637600000000000E+04,      /* K = 13 */
(PID.TID 0000.0001)                 2.155600000000000E+04,      /* K = 14 */
(PID.TID 0000.0001)                 1.755200000000000E+04,      /* K = 15 */
(PID.TID 0000.0001)                 1.422400000000000E+04,      /* K = 16 */
(PID.TID 0000.0001)                 1.145800000000000E+04,      /* K = 17 */
(PID.TID 0000.0001)                 9.160000000000000E+03,      /* K = 18 */
(PID.TID 0000.0001)                 7.250000000000000E+03,      /* K = 19 */
(PID.TID 0000.0001)                 5.664000000000000E+03,      /* K = 20 */
(PID.TID 0000.0001)                 4.346000000000000E+03,      /* K = 21 */
(PID.TID 0000.0001)                 3.250000000000000E+03,      /* K = 22 */
(PID.TID 0000.0001)                 2.340000000000000E+03,      /* K = 23 */
(PID.TID 0000.0001)                 1.584000000000000E+03,      /* K = 24 */
(PID.TID 0000.0001)                 9.560000000000000E+02,      /* K = 25 */
(PID.TID 0000.0001)                 4.340000000000000E+02,      /* K = 26 */
(PID.TID 0000.0001)                 0.000000000000000E+00       /* K = 27 */
(PID.TID 0000.0001)     ;
(PID.TID 0000.0001) deepFacC = /* deep-model grid factor @ cell-Center (-) */
(PID.TID 0000.0001)    26 @  1.000000000000000E+00              /* K =  1: 26 */
(PID.TID 0000.0001)     ;
(PID.TID 0000.0001) deepFacF = /* deep-model grid factor @ W-Interface (-) */
(PID.TID 0000.0001)    27 @  1.000000000000000E+00              /* K =  1: 27 */
(PID.TID 0000.0001)     ;
(PID.TID 0000.0001) rVel2wUnit = /* convert units: rVel -> wSpeed (=1 if z-coord)*/
(PID.TID 0000.0001)                 8.643418775510203E-02,      /* K =  1 */
(PID.TID 0000.0001)                 8.738714281594749E-02,      /* K =  2 */
(PID.TID 0000.0001)                 8.880228539413697E-02,      /* K =  3 */
(PID.TID 0000.0001)                 9.089242929019774E-02,      /* K =  4 */
(PID.TID 0000.0001)                 9.405693947589525E-02,      /* K =  5 */
(PID.TID 0000.0001)                 9.902423118195600E-02,      /* K =  6 */
(PID.TID 0000.0001)                 1.064768002018922E-01,      /* K =  7 */
(PID.TID 0000.0001)                 1.170463961122242E-01,      /* K =  8 */
(PID.TID 0000.0001)                 1.310066026003325E-01,      /* K =  9 */
(PID.TID 0000.0001)                 1.493938920168942E-01,      /* K = 10 */
(PID.TID 0000.0001)                 1.725289602831169E-01,      /* K = 11 */
(PID.TID 0000.0001)                 2.002474459407474E-01,      /* K = 12 */
(PID.TID 0000.0001)                 2.343614310665001E-01,      /* K = 13 */
(PID.TID 0000.0001)                 2.776669889631084E-01,      /* K = 14 */
(PID.TID 0000.0001)                 3.350138715309565E-01,      /* K = 15 */
(PID.TID 0000.0001)                 4.115302688812186E-01,      /* K = 16 */
(PID.TID 0000.0001)                 5.108941627115936E-01,      /* K = 17 */
(PID.TID 0000.0001)                 6.391247399573892E-01,      /* K = 18 */
(PID.TID 0000.0001)                 8.075182125562436E-01,      /* K = 19 */
(PID.TID 0000.0001)                 1.033823213211920E+00,      /* K = 20 */
(PID.TID 0000.0001)                 1.347773276112891E+00,      /* K = 21 */
(PID.TID 0000.0001)                 1.802919824777024E+00,      /* K = 22 */
(PID.TID 0000.0001)                 2.505981061091403E+00,      /* K = 23 */
(PID.TID 0000.0001)                 3.708894241534945E+00,      /* K = 24 */
(PID.TID 0000.0001)                 6.181002019845741E+00,      /* K = 25 */
(PID.TID 0000.0001)                 1.412649152982495E+01,      /* K = 26 */
(PID.TID 0000.0001)                 1.000000000000000E+00       /* K = 27 */
(PID.TID 0000.0001)     ;
(PID.TID 0000.0001) wUnit2rVel = /* convert units: wSpeed -> rVel (=1 if z-coord)*/
(PID.TID 0000.0001)                 1.156949612152712E+01,      /* K =  1 */
(PID.TID 0000.0001)                 1.144333099556961E+01,      /* K =  2 */
(PID.TID 0000.0001)                 1.126097144416537E+01,      /* K =  3 */
(PID.TID 0000.0001)                 1.100201642545211E+01,      /* K =  4 */
(PID.TID 0000.0001)                 1.063185774034545E+01,      /* K =  5 */
(PID.TID 0000.0001)                 1.009853838867489E+01,      /* K =  6 */
(PID.TID 0000.0001)                 9.391717238909184E+00,      /* K =  7 */
(PID.TID 0000.0001)                 8.543620591625897E+00,      /* K =  8 */
(PID.TID 0000.0001)                 7.633203061152140E+00,      /* K =  9 */
(PID.TID 0000.0001)                 6.693714090311771E+00,      /* K = 10 */
(PID.TID 0000.0001)                 5.796128362212453E+00,      /* K = 11 */
(PID.TID 0000.0001)                 4.993821495710346E+00,      /* K = 12 */
(PID.TID 0000.0001)                 4.266913695864273E+00,      /* K = 13 */
(PID.TID 0000.0001)                 3.601436395929884E+00,      /* K = 14 */
(PID.TID 0000.0001)                 2.984951027341554E+00,      /* K = 15 */
(PID.TID 0000.0001)                 2.429954916119751E+00,      /* K = 16 */
(PID.TID 0000.0001)                 1.957352565338495E+00,      /* K = 17 */
(PID.TID 0000.0001)                 1.564639791704309E+00,      /* K = 18 */
(PID.TID 0000.0001)                 1.238362162550421E+00,      /* K = 19 */
(PID.TID 0000.0001)                 9.672833683944502E-01,      /* K = 20 */
(PID.TID 0000.0001)                 7.419645557033876E-01,      /* K = 21 */
(PID.TID 0000.0001)                 5.546558345286792E-01,      /* K = 22 */
(PID.TID 0000.0001)                 3.990453142389196E-01,      /* K = 23 */
(PID.TID 0000.0001)                 2.696221393431119E-01,      /* K = 24 */
(PID.TID 0000.0001)                 1.617860658820747E-01,      /* K = 25 */
(PID.TID 0000.0001)                 7.078898521184275E-02,      /* K = 26 */
(PID.TID 0000.0001)                 1.000000000000000E+00       /* K = 27 */
(PID.TID 0000.0001)     ;
(PID.TID 0000.0001) dBdrRef = /* Vertical grad. of reference buoyancy [(m/s/r)^2] */
(PID.TID 0000.0001)                 0.000000000000000E+00,      /* K =  1 */
(PID.TID 0000.0001)                 1.604020822972663E-07,      /* K =  2 */
(PID.TID 0000.0001)                 2.305314669656972E-07,      /* K =  3 */
(PID.TID 0000.0001)                 1.669031556286163E-07,      /* K =  4 */
(PID.TID 0000.0001)                 2.443043384715506E-07,      /* K =  5 */
(PID.TID 0000.0001)                 2.860066576999341E-07,      /* K =  6 */
(PID.TID 0000.0001)                 2.921875837384485E-07,      /* K =  7 */
(PID.TID 0000.0001)                 3.755074484194814E-07,      /* K =  8 */
(PID.TID 0000.0001)                 5.066322497832424E-07,      /* K =  9 */
(PID.TID 0000.0001)                 7.166887707647536E-07,      /* K = 10 */
(PID.TID 0000.0001)                 1.306741577704211E-06,      /* K = 11 */
(PID.TID 0000.0001)                 3.518055907999274E-06,      /* K = 12 */
(PID.TID 0000.0001)                 8.225060034419378E-06,      /* K = 13 */
(PID.TID 0000.0001)                 1.937860091746120E-05,      /* K = 14 */
(PID.TID 0000.0001)                 4.456361509018920E-05,      /* K = 15 */
(PID.TID 0000.0001)                 8.004656631735151E-05,      /* K = 16 */
(PID.TID 0000.0001)                 1.235417107379588E-04,      /* K = 17 */
(PID.TID 0000.0001)                 1.931534961382523E-04,      /* K = 18 */
(PID.TID 0000.0001)                 3.077255424266486E-04,      /* K = 19 */
(PID.TID 0000.0001)                 5.060735888621455E-04,      /* K = 20 */
(PID.TID 0000.0001)                 8.577447781720473E-04,      /* K = 21 */
(PID.TID 0000.0001)                 1.533315559624654E-03,      /* K = 22 */
(PID.TID 0000.0001)                 2.960876155175189E-03,      /* K = 23 */
(PID.TID 0000.0001)                 6.490610232038748E-03,      /* K = 24 */
(PID.TID 0000.0001)                 1.807701670627409E-02,      /* K = 25 */
(PID.TID 0000.0001)                 9.817506062475811E-02       /* K = 26 */
(PID.TID 0000.0001)     ;
(PID.TID 0000.0001) rotateGrid = /* use rotated grid ( True/False ) */
(PID.TID 0000.0001)                   F
(PID.TID 0000.0001)     ;
(PID.TID 0000.0001) phiEuler = /* Euler angle, rotation about original z-coordinate [rad] */
(PID.TID 0000.0001)                 0.000000000000000E+00
(PID.TID 0000.0001)     ;
(PID.TID 0000.0001) thetaEuler = /* Euler angle, rotation about new x-coordinate [rad] */
(PID.TID 0000.0001)                 0.000000000000000E+00
(PID.TID 0000.0001)     ;
(PID.TID 0000.0001) psiEuler = /* Euler angle, rotation about new z-coordinate [rad] */
(PID.TID 0000.0001)                 0.000000000000000E+00
(PID.TID 0000.0001)     ;
(PID.TID 0000.0001) dxF =  /* dxF(:,1,:,1) ( units: m ) */
(PID.TID 0000.0001)                 1.202082051331828E+05,      /* I =  1 */
(PID.TID 0000.0001)                 1.563594089971120E+05,      /* I =  2 */
(PID.TID 0000.0001)                 1.835530058121492E+05,      /* I =  3 */
(PID.TID 0000.0001)      . . .
(PID.TID 0000.0001)                 2.978501920522794E+05,      /* I = 46 */
(PID.TID 0000.0001)                 3.000967749619962E+05,      /* I = 47 */
(PID.TID 0000.0001)                 3.012190981969055E+05,      /* I = 48 */
(PID.TID 0000.0001)                 3.012190981969055E+05,      /* I = 49 */
(PID.TID 0000.0001)                 3.000967749619962E+05,      /* I = 50 */
(PID.TID 0000.0001)                 2.978501920522794E+05,      /* I = 51 */
(PID.TID 0000.0001)      . . .
(PID.TID 0000.0001)                 1.835530058121492E+05,      /* I = 94 */
(PID.TID 0000.0001)                 1.563594089971120E+05,      /* I = 95 */
(PID.TID 0000.0001)                 1.202082051331828E+05,      /* I = 96 */
(PID.TID 0000.0001)                 1.202082051331828E+05,      /* I = 97 */
(PID.TID 0000.0001)                 1.563594089971120E+05,      /* I = 98 */
(PID.TID 0000.0001)                 1.835530058121492E+05,      /* I = 99 */
(PID.TID 0000.0001)      . . .
(PID.TID 0000.0001)                 2.978501920522794E+05,      /* I =142 */
(PID.TID 0000.0001)                 3.000967749619962E+05,      /* I =143 */
(PID.TID 0000.0001)                 3.012190981969055E+05,      /* I =144 */
(PID.TID 0000.0001)                 3.012190981969055E+05,      /* I =145 */
(PID.TID 0000.0001)                 3.000967749619962E+05,      /* I =146 */
(PID.TID 0000.0001)                 2.978501920522794E+05,      /* I =147 */
(PID.TID 0000.0001)      . . .
(PID.TID 0000.0001)                 1.835530058121492E+05,      /* I =190 */
(PID.TID 0000.0001)                 1.563594089971120E+05,      /* I =191 */
(PID.TID 0000.0001)                 1.202082051331828E+05       /* I =192 */
(PID.TID 0000.0001)     ;
(PID.TID 0000.0001) dxF =  /* dxF(1,:,1,:) ( units: m ) */
(PID.TID 0000.0001)                 1.202082051331828E+05,      /* J =  1 */
(PID.TID 0000.0001)                 1.572908084538706E+05,      /* J =  2 */
(PID.TID 0000.0001)                 1.840412227747703E+05,      /* J =  3 */
(PID.TID 0000.0001)                 2.048868197919576E+05,      /* J =  4 */
(PID.TID 0000.0001)                 2.220405216043041E+05,      /* J =  5 */
(PID.TID 0000.0001)                 2.365892017348392E+05,      /* J =  6 */
(PID.TID 0000.0001)                 2.491250781852558E+05,      /* J =  7 */
(PID.TID 0000.0001)                 2.599949918261881E+05,      /* J =  8 */
(PID.TID 0000.0001)                 2.694110134598581E+05,      /* J =  9 */
(PID.TID 0000.0001)                 2.775055554645015E+05,      /* J = 10 */
(PID.TID 0000.0001)                 2.843615645344775E+05,      /* J = 11 */
(PID.TID 0000.0001)                 2.900303768613599E+05,      /* J = 12 */
(PID.TID 0000.0001)                 2.945429307892709E+05,      /* J = 13 */
(PID.TID 0000.0001)                 2.979171143158405E+05,      /* J = 14 */
(PID.TID 0000.0001)                 3.001626787528886E+05,      /* J = 15 */
(PID.TID 0000.0001)     2 @  3.012844832048790E+05,             /* J = 16: 17 */
(PID.TID 0000.0001)                 3.001626787528886E+05,      /* J = 18 */
(PID.TID 0000.0001)                 2.979171143158405E+05,      /* J = 19 */
(PID.TID 0000.0001)                 2.945429307892709E+05,      /* J = 20 */
(PID.TID 0000.0001)                 2.900303768613599E+05,      /* J = 21 */
(PID.TID 0000.0001)                 2.843615645344775E+05,      /* J = 22 */
(PID.TID 0000.0001)                 2.775055554645015E+05,      /* J = 23 */
(PID.TID 0000.0001)                 2.694110134598581E+05,      /* J = 24 */
(PID.TID 0000.0001)                 2.599949918261881E+05,      /* J = 25 */
(PID.TID 0000.0001)                 2.491250781852558E+05,      /* J = 26 */
(PID.TID 0000.0001)                 2.365892017348392E+05,      /* J = 27 */
(PID.TID 0000.0001)                 2.220405216043041E+05,      /* J = 28 */
(PID.TID 0000.0001)                 2.048868197919576E+05,      /* J = 29 */
(PID.TID 0000.0001)                 1.840412227747703E+05,      /* J = 30 */
(PID.TID 0000.0001)                 1.572908084538706E+05,      /* J = 31 */
(PID.TID 0000.0001)                 1.202082051331828E+05       /* J = 32 */
(PID.TID 0000.0001)     ;
(PID.TID 0000.0001) dyF =  /* dyF(:,1,:,1) ( units: m ) */
(PID.TID 0000.0001)                 1.202082051331828E+05,      /* I =  1 */
(PID.TID 0000.0001)                 1.572908084538706E+05,      /* I =  2 */
(PID.TID 0000.0001)                 1.840412227747703E+05,      /* I =  3 */
(PID.TID 0000.0001)      . . .
(PID.TID 0000.0001)                 2.979171143158405E+05,      /* I = 46 */
(PID.TID 0000.0001)                 3.001626787528886E+05,      /* I = 47 */
(PID.TID 0000.0001)                 3.012844832048790E+05,      /* I = 48 */
(PID.TID 0000.0001)                 3.012844832048790E+05,      /* I = 49 */
(PID.TID 0000.0001)                 3.001626787528886E+05,      /* I = 50 */
(PID.TID 0000.0001)                 2.979171143158405E+05,      /* I = 51 */
(PID.TID 0000.0001)      . . .
(PID.TID 0000.0001)                 1.840412227747703E+05,      /* I = 94 */
(PID.TID 0000.0001)                 1.572908084538706E+05,      /* I = 95 */
(PID.TID 0000.0001)                 1.202082051331828E+05,      /* I = 96 */
(PID.TID 0000.0001)                 1.202082051331828E+05,      /* I = 97 */
(PID.TID 0000.0001)                 1.572908084538706E+05,      /* I = 98 */
(PID.TID 0000.0001)                 1.840412227747703E+05,      /* I = 99 */
(PID.TID 0000.0001)      . . .
(PID.TID 0000.0001)                 2.979171143158405E+05,      /* I =142 */
(PID.TID 0000.0001)                 3.001626787528886E+05,      /* I =143 */
(PID.TID 0000.0001)                 3.012844832048790E+05,      /* I =144 */
(PID.TID 0000.0001)                 3.012844832048790E+05,      /* I =145 */
(PID.TID 0000.0001)                 3.001626787528886E+05,      /* I =146 */
(PID.TID 0000.0001)                 2.979171143158405E+05,      /* I =147 */
(PID.TID 0000.0001)      . . .
(PID.TID 0000.0001)                 1.840412227747703E+05,      /* I =190 */
(PID.TID 0000.0001)                 1.572908084538706E+05,      /* I =191 */
(PID.TID 0000.0001)                 1.202082051331828E+05       /* I =192 */
(PID.TID 0000.0001)     ;
(PID.TID 0000.0001) dyF =  /* dyF(1,:,1,:) ( units: m ) */
(PID.TID 0000.0001)                 1.202082051331828E+05,      /* J =  1 */
(PID.TID 0000.0001)                 1.563594089971120E+05,      /* J =  2 */
(PID.TID 0000.0001)                 1.835530058121492E+05,      /* J =  3 */
(PID.TID 0000.0001)                 2.045883481718707E+05,      /* J =  4 */
(PID.TID 0000.0001)                 2.218350349844185E+05,      /* J =  5 */
(PID.TID 0000.0001)                 2.364352994647058E+05,      /* J =  6 */
(PID.TID 0000.0001)                 2.490022710862746E+05,      /* J =  7 */
(PID.TID 0000.0001)                 2.598919724358304E+05,      /* J =  8 */
(PID.TID 0000.0001)                 2.693210245495156E+05,      /* J =  9 */
(PID.TID 0000.0001)                 2.774243179696503E+05,      /* J = 10 */
(PID.TID 0000.0001)                 2.842862532064524E+05,      /* J = 11 */
(PID.TID 0000.0001)                 2.899590699694043E+05,      /* J = 12 */
(PID.TID 0000.0001)                 2.944742915095688E+05,      /* J = 13 */
(PID.TID 0000.0001)                 2.978501920522794E+05,      /* J = 14 */
(PID.TID 0000.0001)                 3.000967749619962E+05,      /* J = 15 */
(PID.TID 0000.0001)     2 @  3.012190981969055E+05,             /* J = 16: 17 */
(PID.TID 0000.0001)                 3.000967749619962E+05,      /* J = 18 */
(PID.TID 0000.0001)                 2.978501920522794E+05,      /* J = 19 */
(PID.TID 0000.0001)                 2.944742915095688E+05,      /* J = 20 */
(PID.TID 0000.0001)                 2.899590699694043E+05,      /* J = 21 */
(PID.TID 0000.0001)                 2.842862532064524E+05,      /* J = 22 */
(PID.TID 0000.0001)                 2.774243179696503E+05,      /* J = 23 */
(PID.TID 0000.0001)                 2.693210245495156E+05,      /* J = 24 */
(PID.TID 0000.0001)                 2.598919724358304E+05,      /* J = 25 */
(PID.TID 0000.0001)                 2.490022710862746E+05,      /* J = 26 */
(PID.TID 0000.0001)                 2.364352994647058E+05,      /* J = 27 */
(PID.TID 0000.0001)                 2.218350349844185E+05,      /* J = 28 */
(PID.TID 0000.0001)                 2.045883481718707E+05,      /* J = 29 */
(PID.TID 0000.0001)                 1.835530058121492E+05,      /* J = 30 */
(PID.TID 0000.0001)                 1.563594089971120E+05,      /* J = 31 */
(PID.TID 0000.0001)                 1.202082051331828E+05       /* J = 32 */
(PID.TID 0000.0001)     ;
(PID.TID 0000.0001) dxG =  /* dxG(:,1,:,1) ( units: m ) */
(PID.TID 0000.0001)                 1.009837800879055E+05,      /* I =  1 */
(PID.TID 0000.0001)                 1.534505834330338E+05,      /* I =  2 */
(PID.TID 0000.0001)                 1.823321598773926E+05,      /* I =  3 */
(PID.TID 0000.0001)      . . .
(PID.TID 0000.0001)                 2.977867909042096E+05,      /* I = 46 */
(PID.TID 0000.0001)                 3.000380090330854E+05,      /* I = 47 */
(PID.TID 0000.0001)                 3.011625828699101E+05,      /* I = 48 */
(PID.TID 0000.0001)                 3.011625828699101E+05,      /* I = 49 */
(PID.TID 0000.0001)                 3.000380090330854E+05,      /* I = 50 */
(PID.TID 0000.0001)                 2.977867909042096E+05,      /* I = 51 */
(PID.TID 0000.0001)      . . .
(PID.TID 0000.0001)                 1.823321598773926E+05,      /* I = 94 */
(PID.TID 0000.0001)                 1.534505834330338E+05,      /* I = 95 */
(PID.TID 0000.0001)                 1.009837800879055E+05,      /* I = 96 */
(PID.TID 0000.0001)                 1.009837800879055E+05,      /* I = 97 */
(PID.TID 0000.0001)                 1.534505834330338E+05,      /* I = 98 */
(PID.TID 0000.0001)                 1.823321598773926E+05,      /* I = 99 */
(PID.TID 0000.0001)      . . .
(PID.TID 0000.0001)                 2.977867909042096E+05,      /* I =142 */
(PID.TID 0000.0001)                 3.000380090330854E+05,      /* I =143 */
(PID.TID 0000.0001)                 3.011625828699101E+05,      /* I =144 */
(PID.TID 0000.0001)                 3.011625828699101E+05,      /* I =145 */
(PID.TID 0000.0001)                 3.000380090330854E+05,      /* I =146 */
(PID.TID 0000.0001)                 2.977867909042096E+05,      /* I =147 */
(PID.TID 0000.0001)      . . .
(PID.TID 0000.0001)                 1.823321598773926E+05,      /* I =190 */
(PID.TID 0000.0001)                 1.534505834330338E+05,      /* I =191 */
(PID.TID 0000.0001)                 1.009837800879055E+05       /* I =192 */
(PID.TID 0000.0001)     ;
(PID.TID 0000.0001) dxG =  /* dxG(1,:,1,:) ( units: m ) */
(PID.TID 0000.0001)                 1.009837800879055E+05,      /* J =  1 */
(PID.TID 0000.0001)                 1.403701524205398E+05,      /* J =  2 */
(PID.TID 0000.0001)                 1.716197227386011E+05,      /* J =  3 */
(PID.TID 0000.0001)                 1.950254041626018E+05,      /* J =  4 */
(PID.TID 0000.0001)                 2.138410773065497E+05,      /* J =  5 */
(PID.TID 0000.0001)                 2.295958105911512E+05,      /* J =  6 */
(PID.TID 0000.0001)                 2.430829951739083E+05,      /* J =  7 */
(PID.TID 0000.0001)                 2.547526806712889E+05,      /* J =  8 */
(PID.TID 0000.0001)                 2.648750305193301E+05,      /* J =  9 */
(PID.TID 0000.0001)                 2.736173771018112E+05,      /* J = 10 */
(PID.TID 0000.0001)                 2.810845823202647E+05,      /* J = 11 */
(PID.TID 0000.0001)                 2.873420591008078E+05,      /* J = 12 */
(PID.TID 0000.0001)                 2.924298293668651E+05,      /* J = 13 */
(PID.TID 0000.0001)                 2.963715635865306E+05,      /* J = 14 */
(PID.TID 0000.0001)                 2.991805843171258E+05,      /* J = 15 */
(PID.TID 0000.0001)                 3.008638765647886E+05,      /* J = 16 */
(PID.TID 0000.0001)                 3.014246674484008E+05,      /* J = 17 */
(PID.TID 0000.0001)                 3.008638765647886E+05,      /* J = 18 */
(PID.TID 0000.0001)                 2.991805843171258E+05,      /* J = 19 */
(PID.TID 0000.0001)                 2.963715635865306E+05,      /* J = 20 */
(PID.TID 0000.0001)                 2.924298293668651E+05,      /* J = 21 */
(PID.TID 0000.0001)                 2.873420591008078E+05,      /* J = 22 */
(PID.TID 0000.0001)                 2.810845823202647E+05,      /* J = 23 */
(PID.TID 0000.0001)                 2.736173771018112E+05,      /* J = 24 */
(PID.TID 0000.0001)                 2.648750305193301E+05,      /* J = 25 */
(PID.TID 0000.0001)                 2.547526806712889E+05,      /* J = 26 */
(PID.TID 0000.0001)                 2.430829951739083E+05,      /* J = 27 */
(PID.TID 0000.0001)                 2.295958105911512E+05,      /* J = 28 */
(PID.TID 0000.0001)                 2.138410773065497E+05,      /* J = 29 */
(PID.TID 0000.0001)                 1.950254041626018E+05,      /* J = 30 */
(PID.TID 0000.0001)                 1.716197227386011E+05,      /* J = 31 */
(PID.TID 0000.0001)                 1.403701524205398E+05       /* J = 32 */
(PID.TID 0000.0001)     ;
(PID.TID 0000.0001) dyG =  /* dyG(:,1,:,1) ( units: m ) */
(PID.TID 0000.0001)                 1.009837800879055E+05,      /* I =  1 */
(PID.TID 0000.0001)                 1.403701524205398E+05,      /* I =  2 */
(PID.TID 0000.0001)                 1.716197227386011E+05,      /* I =  3 */
(PID.TID 0000.0001)      . . .
(PID.TID 0000.0001)                 2.963715635865306E+05,      /* I = 46 */
(PID.TID 0000.0001)                 2.991805843171258E+05,      /* I = 47 */
(PID.TID 0000.0001)                 3.008638765647886E+05,      /* I = 48 */
(PID.TID 0000.0001)                 3.014246674484008E+05,      /* I = 49 */
(PID.TID 0000.0001)                 3.008638765647886E+05,      /* I = 50 */
(PID.TID 0000.0001)                 2.991805843171258E+05,      /* I = 51 */
(PID.TID 0000.0001)      . . .
(PID.TID 0000.0001)                 1.950254041626018E+05,      /* I = 94 */
(PID.TID 0000.0001)                 1.716197227386011E+05,      /* I = 95 */
(PID.TID 0000.0001)                 1.403701524205398E+05,      /* I = 96 */
(PID.TID 0000.0001)                 1.009837800879055E+05,      /* I = 97 */
(PID.TID 0000.0001)                 1.403701524205398E+05,      /* I = 98 */
(PID.TID 0000.0001)                 1.716197227386011E+05,      /* I = 99 */
(PID.TID 0000.0001)      . . .
(PID.TID 0000.0001)                 2.963715635865306E+05,      /* I =142 */
(PID.TID 0000.0001)                 2.991805843171258E+05,      /* I =143 */
(PID.TID 0000.0001)                 3.008638765647886E+05,      /* I =144 */
(PID.TID 0000.0001)                 3.014246674484008E+05,      /* I =145 */
(PID.TID 0000.0001)                 3.008638765647886E+05,      /* I =146 */
(PID.TID 0000.0001)                 2.991805843171258E+05,      /* I =147 */
(PID.TID 0000.0001)      . . .
(PID.TID 0000.0001)                 1.950254041626018E+05,      /* I =190 */
(PID.TID 0000.0001)                 1.716197227386011E+05,      /* I =191 */
(PID.TID 0000.0001)                 1.403701524205398E+05       /* I =192 */
(PID.TID 0000.0001)     ;
(PID.TID 0000.0001) dyG =  /* dyG(1,:,1,:) ( units: m ) */
(PID.TID 0000.0001)                 1.009837800879055E+05,      /* J =  1 */
(PID.TID 0000.0001)                 1.534505834330338E+05,      /* J =  2 */
(PID.TID 0000.0001)                 1.823321598773926E+05,      /* J =  3 */
(PID.TID 0000.0001)                 2.038999045536999E+05,      /* J =  4 */
(PID.TID 0000.0001)                 2.213884732245467E+05,      /* J =  5 */
(PID.TID 0000.0001)                 2.361211699596122E+05,      /* J =  6 */
(PID.TID 0000.0001)                 2.487693460283865E+05,      /* J =  7 */
(PID.TID 0000.0001)                 2.597126963772147E+05,      /* J =  8 */
(PID.TID 0000.0001)                 2.691790288994575E+05,      /* J =  9 */
(PID.TID 0000.0001)                 2.773091043277394E+05,      /* J = 10 */
(PID.TID 0000.0001)                 2.841906470085516E+05,      /* J = 11 */
(PID.TID 0000.0001)                 2.898778860929753E+05,      /* J = 12 */
(PID.TID 0000.0001)                 2.944035815526416E+05,      /* J = 13 */
(PID.TID 0000.0001)                 2.977867909042096E+05,      /* J = 14 */
(PID.TID 0000.0001)                 3.000380090330854E+05,      /* J = 15 */
(PID.TID 0000.0001)     2 @  3.011625828699101E+05,             /* J = 16: 17 */
(PID.TID 0000.0001)                 3.000380090330854E+05,      /* J = 18 */
(PID.TID 0000.0001)                 2.977867909042096E+05,      /* J = 19 */
(PID.TID 0000.0001)                 2.944035815526416E+05,      /* J = 20 */
(PID.TID 0000.0001)                 2.898778860929753E+05,      /* J = 21 */
(PID.TID 0000.0001)                 2.841906470085516E+05,      /* J = 22 */
(PID.TID 0000.0001)                 2.773091043277394E+05,      /* J = 23 */
(PID.TID 0000.0001)                 2.691790288994575E+05,      /* J = 24 */
(PID.TID 0000.0001)                 2.597126963772147E+05,      /* J = 25 */
(PID.TID 0000.0001)                 2.487693460283865E+05,      /* J = 26 */
(PID.TID 0000.0001)                 2.361211699596122E+05,      /* J = 27 */
(PID.TID 0000.0001)                 2.213884732245467E+05,      /* J = 28 */
(PID.TID 0000.0001)                 2.038999045536999E+05,      /* J = 29 */
(PID.TID 0000.0001)                 1.823321598773926E+05,      /* J = 30 */
(PID.TID 0000.0001)                 1.534505834330338E+05,      /* J = 31 */
(PID.TID 0000.0001)                 1.009837800879055E+05       /* J = 32 */
(PID.TID 0000.0001)     ;
(PID.TID 0000.0001) dxC =  /* dxC(:,1,:,1) ( units: m ) */
(PID.TID 0000.0001)                 1.135373000692312E+05,      /* I =  1 */
(PID.TID 0000.0001)                 1.391343389937106E+05,      /* I =  2 */
(PID.TID 0000.0001)                 1.709574999026266E+05,      /* I =  3 */
(PID.TID 0000.0001)      . . .
(PID.TID 0000.0001)                 2.963038832565530E+05,      /* I = 46 */
(PID.TID 0000.0001)                 2.991142470004740E+05,      /* I = 47 */
(PID.TID 0000.0001)                 3.007982711627968E+05,      /* I = 48 */
(PID.TID 0000.0001)                 3.013593857228136E+05,      /* I = 49 */
(PID.TID 0000.0001)                 3.007982711627968E+05,      /* I = 50 */
(PID.TID 0000.0001)                 2.991142470004740E+05,      /* I = 51 */
(PID.TID 0000.0001)      . . .
(PID.TID 0000.0001)                 1.946503699269892E+05,      /* I = 94 */
(PID.TID 0000.0001)                 1.709574999026266E+05,      /* I = 95 */
(PID.TID 0000.0001)                 1.391343389937106E+05,      /* I = 96 */
(PID.TID 0000.0001)                 1.135373000692312E+05,      /* I = 97 */
(PID.TID 0000.0001)                 1.391343389937106E+05,      /* I = 98 */
(PID.TID 0000.0001)                 1.709574999026266E+05,      /* I = 99 */
(PID.TID 0000.0001)      . . .
(PID.TID 0000.0001)                 2.963038832565530E+05,      /* I =142 */
(PID.TID 0000.0001)                 2.991142470004740E+05,      /* I =143 */
(PID.TID 0000.0001)                 3.007982711627968E+05,      /* I =144 */
(PID.TID 0000.0001)                 3.013593857228136E+05,      /* I =145 */
(PID.TID 0000.0001)                 3.007982711627968E+05,      /* I =146 */
(PID.TID 0000.0001)                 2.991142470004740E+05,      /* I =147 */
(PID.TID 0000.0001)      . . .
(PID.TID 0000.0001)                 1.946503699269892E+05,      /* I =190 */
(PID.TID 0000.0001)                 1.709574999026266E+05,      /* I =191 */
(PID.TID 0000.0001)                 1.391343389937106E+05       /* I =192 */
(PID.TID 0000.0001)     ;
(PID.TID 0000.0001) dxC =  /* dxC(1,:,1,:) ( units: m ) */
(PID.TID 0000.0001)                 1.135373000692312E+05,      /* J =  1 */
(PID.TID 0000.0001)                 1.549545757850771E+05,      /* J =  2 */
(PID.TID 0000.0001)                 1.829777599966776E+05,      /* J =  3 */
(PID.TID 0000.0001)                 2.042717761866506E+05,      /* J =  4 */
(PID.TID 0000.0001)                 2.216367828252819E+05,      /* J =  5 */
(PID.TID 0000.0001)                 2.363029564123586E+05,      /* J =  6 */
(PID.TID 0000.0001)                 2.489113743322025E+05,      /* J =  7 */
(PID.TID 0000.0001)                 2.598293319150326E+05,      /* J =  8 */
(PID.TID 0000.0001)                 2.692787333338535E+05,      /* J =  9 */
(PID.TID 0000.0001)                 2.773972106720365E+05,      /* J = 10 */
(PID.TID 0000.0001)                 2.842706922224557E+05,      /* J = 11 */
(PID.TID 0000.0001)                 2.899523122489403E+05,      /* J = 12 */
(PID.TID 0000.0001)                 2.944741346384699E+05,      /* J = 13 */
(PID.TID 0000.0001)                 2.978547649292580E+05,      /* J = 14 */
(PID.TID 0000.0001)                 3.001044073506459E+05,      /* J = 15 */
(PID.TID 0000.0001)     2 @  3.012281885409289E+05,             /* J = 16: 17 */
(PID.TID 0000.0001)                 3.001044073506459E+05,      /* J = 18 */
(PID.TID 0000.0001)                 2.978547649292580E+05,      /* J = 19 */
(PID.TID 0000.0001)                 2.944741346384699E+05,      /* J = 20 */
(PID.TID 0000.0001)                 2.899523122489403E+05,      /* J = 21 */
(PID.TID 0000.0001)                 2.842706922224557E+05,      /* J = 22 */
(PID.TID 0000.0001)                 2.773972106720365E+05,      /* J = 23 */
(PID.TID 0000.0001)                 2.692787333338535E+05,      /* J = 24 */
(PID.TID 0000.0001)                 2.598293319150326E+05,      /* J = 25 */
(PID.TID 0000.0001)                 2.489113743322025E+05,      /* J = 26 */
(PID.TID 0000.0001)                 2.363029564123586E+05,      /* J = 27 */
(PID.TID 0000.0001)                 2.216367828252819E+05,      /* J = 28 */
(PID.TID 0000.0001)                 2.042717761866506E+05,      /* J = 29 */
(PID.TID 0000.0001)                 1.829777599966776E+05,      /* J = 30 */
(PID.TID 0000.0001)                 1.549545757850771E+05,      /* J = 31 */
(PID.TID 0000.0001)                 1.135373000692312E+05       /* J = 32 */
(PID.TID 0000.0001)     ;
(PID.TID 0000.0001) dyC =  /* dyC(:,1,:,1) ( units: m ) */
(PID.TID 0000.0001)                 1.135373000692312E+05,      /* I =  1 */
(PID.TID 0000.0001)                 1.549545757850771E+05,      /* I =  2 */
(PID.TID 0000.0001)                 1.829777599966776E+05,      /* I =  3 */
(PID.TID 0000.0001)      . . .
(PID.TID 0000.0001)                 2.978547649292580E+05,      /* I = 46 */
(PID.TID 0000.0001)                 3.001044073506459E+05,      /* I = 47 */
(PID.TID 0000.0001)                 3.012281885409289E+05,      /* I = 48 */
(PID.TID 0000.0001)                 3.012281885409289E+05,      /* I = 49 */
(PID.TID 0000.0001)                 3.001044073506459E+05,      /* I = 50 */
(PID.TID 0000.0001)                 2.978547649292580E+05,      /* I = 51 */
(PID.TID 0000.0001)      . . .
(PID.TID 0000.0001)                 1.829777599966776E+05,      /* I = 94 */
(PID.TID 0000.0001)                 1.549545757850771E+05,      /* I = 95 */
(PID.TID 0000.0001)                 1.135373000692312E+05,      /* I = 96 */
(PID.TID 0000.0001)                 1.135373000692312E+05,      /* I = 97 */
(PID.TID 0000.0001)                 1.549545757850771E+05,      /* I = 98 */
(PID.TID 0000.0001)                 1.829777599966776E+05,      /* I = 99 */
(PID.TID 0000.0001)      . . .
(PID.TID 0000.0001)                 2.978547649292580E+05,      /* I =142 */
(PID.TID 0000.0001)                 3.001044073506459E+05,      /* I =143 */
(PID.TID 0000.0001)                 3.012281885409289E+05,      /* I =144 */
(PID.TID 0000.0001)                 3.012281885409289E+05,      /* I =145 */
(PID.TID 0000.0001)                 3.001044073506459E+05,      /* I =146 */
(PID.TID 0000.0001)                 2.978547649292580E+05,      /* I =147 */
(PID.TID 0000.0001)      . . .
(PID.TID 0000.0001)                 1.829777599966776E+05,      /* I =190 */
(PID.TID 0000.0001)                 1.549545757850771E+05,      /* I =191 */
(PID.TID 0000.0001)                 1.135373000692312E+05       /* I =192 */
(PID.TID 0000.0001)     ;
(PID.TID 0000.0001) dyC =  /* dyC(1,:,1,:) ( units: m ) */
(PID.TID 0000.0001)                 1.135373000692312E+05,      /* J =  1 */
(PID.TID 0000.0001)                 1.391343389937106E+05,      /* J =  2 */
(PID.TID 0000.0001)                 1.709574999026266E+05,      /* J =  3 */
(PID.TID 0000.0001)                 1.946503699269892E+05,      /* J =  4 */
(PID.TID 0000.0001)                 2.135964483342134E+05,      /* J =  5 */
(PID.TID 0000.0001)                 2.294195678257306E+05,      /* J =  6 */
(PID.TID 0000.0001)                 2.429464709770498E+05,      /* J =  7 */
(PID.TID 0000.0001)                 2.546408290696998E+05,      /* J =  8 */
(PID.TID 0000.0001)                 2.647791839299727E+05,      /* J =  9 */
(PID.TID 0000.0001)                 2.735321911346108E+05,      /* J = 10 */
(PID.TID 0000.0001)                 2.810065951609633E+05,      /* J = 11 */
(PID.TID 0000.0001)                 2.872689479506990E+05,      /* J = 12 */
(PID.TID 0000.0001)                 2.923599955312932E+05,      /* J = 13 */
(PID.TID 0000.0001)                 2.963038832565530E+05,      /* J = 14 */
(PID.TID 0000.0001)                 2.991142470004740E+05,      /* J = 15 */
(PID.TID 0000.0001)                 3.007982711627968E+05,      /* J = 16 */
(PID.TID 0000.0001)                 3.013593857228136E+05,      /* J = 17 */
(PID.TID 0000.0001)                 3.007982711627968E+05,      /* J = 18 */
(PID.TID 0000.0001)                 2.991142470004740E+05,      /* J = 19 */
(PID.TID 0000.0001)                 2.963038832565530E+05,      /* J = 20 */
(PID.TID 0000.0001)                 2.923599955312932E+05,      /* J = 21 */
(PID.TID 0000.0001)                 2.872689479506990E+05,      /* J = 22 */
(PID.TID 0000.0001)                 2.810065951609633E+05,      /* J = 23 */
(PID.TID 0000.0001)                 2.735321911346108E+05,      /* J = 24 */
(PID.TID 0000.0001)                 2.647791839299727E+05,      /* J = 25 */
(PID.TID 0000.0001)                 2.546408290696998E+05,      /* J = 26 */
(PID.TID 0000.0001)                 2.429464709770498E+05,      /* J = 27 */
(PID.TID 0000.0001)                 2.294195678257306E+05,      /* J = 28 */
(PID.TID 0000.0001)                 2.135964483342134E+05,      /* J = 29 */
(PID.TID 0000.0001)                 1.946503699269892E+05,      /* J = 30 */
(PID.TID 0000.0001)                 1.709574999026266E+05,      /* J = 31 */
(PID.TID 0000.0001)                 1.391343389937106E+05       /* J = 32 */
(PID.TID 0000.0001)     ;
(PID.TID 0000.0001) dxV =  /* dxV(:,1,:,1) ( units: m ) */
(PID.TID 0000.0001)                 8.015229982413632E+04,      /* I =  1 */
(PID.TID 0000.0001)                 1.333130744933864E+05,      /* I =  2 */
(PID.TID 0000.0001)                 1.691744868129062E+05,      /* I =  3 */
(PID.TID 0000.0001)      . . .
(PID.TID 0000.0001)                 2.962371870847826E+05,      /* I = 46 */
(PID.TID 0000.0001)                 2.990534755671296E+05,      /* I = 47 */
(PID.TID 0000.0001)                 3.007409169495504E+05,      /* I = 48 */
(PID.TID 0000.0001)                 3.013031486919771E+05,      /* I = 49 */
(PID.TID 0000.0001)                 3.007409169495504E+05,      /* I = 50 */
(PID.TID 0000.0001)                 2.990534755671296E+05,      /* I = 51 */
(PID.TID 0000.0001)      . . .
(PID.TID 0000.0001)                 1.937548202849060E+05,      /* I = 94 */
(PID.TID 0000.0001)                 1.691744868129062E+05,      /* I = 95 */
(PID.TID 0000.0001)                 1.333130744933864E+05,      /* I = 96 */
(PID.TID 0000.0001)                 8.015229982413632E+04,      /* I = 97 */
(PID.TID 0000.0001)                 1.333130744933864E+05,      /* I = 98 */
(PID.TID 0000.0001)                 1.691744868129062E+05,      /* I = 99 */
(PID.TID 0000.0001)      . . .
(PID.TID 0000.0001)                 2.962371870847826E+05,      /* I =142 */
(PID.TID 0000.0001)                 2.990534755671296E+05,      /* I =143 */
(PID.TID 0000.0001)                 3.007409169495504E+05,      /* I =144 */
(PID.TID 0000.0001)                 3.013031486919771E+05,      /* I =145 */
(PID.TID 0000.0001)                 3.007409169495504E+05,      /* I =146 */
(PID.TID 0000.0001)                 2.990534755671296E+05,      /* I =147 */
(PID.TID 0000.0001)      . . .
(PID.TID 0000.0001)                 1.937548202849060E+05,      /* I =190 */
(PID.TID 0000.0001)                 1.691744868129062E+05,      /* I =191 */
(PID.TID 0000.0001)                 1.333130744933864E+05       /* I =192 */
(PID.TID 0000.0001)     ;
(PID.TID 0000.0001) dxV =  /* dxV(1,:,1,:) ( units: m ) */
(PID.TID 0000.0001)                 8.015229982413632E+04,      /* J =  1 */
(PID.TID 0000.0001)                 1.362652340208229E+05,      /* J =  2 */
(PID.TID 0000.0001)                 1.701080315742101E+05,      /* J =  3 */
(PID.TID 0000.0001)                 1.942331448101592E+05,      /* J =  4 */
(PID.TID 0000.0001)                 2.133486626971531E+05,      /* J =  5 */
(PID.TID 0000.0001)                 2.292584591272880E+05,      /* J =  6 */
(PID.TID 0000.0001)                 2.428369969078989E+05,      /* J =  7 */
(PID.TID 0000.0001)                 2.545652950875683E+05,      /* J =  8 */
(PID.TID 0000.0001)                 2.647274964828301E+05,      /* J =  9 */
(PID.TID 0000.0001)                 2.734980225206389E+05,      /* J = 10 */
(PID.TID 0000.0001)                 2.809856491525217E+05,      /* J = 11 */
(PID.TID 0000.0001)                 2.872580915202295E+05,      /* J = 12 */
(PID.TID 0000.0001)                 2.923567890694162E+05,      /* J = 13 */
(PID.TID 0000.0001)                 2.963063101754721E+05,      /* J = 14 */
(PID.TID 0000.0001)                 2.991205495886625E+05,      /* J = 15 */
(PID.TID 0000.0001)                 3.008068453676764E+05,      /* J = 16 */
(PID.TID 0000.0001)                 3.013686170436881E+05,      /* J = 17 */
(PID.TID 0000.0001)                 3.008068453676764E+05,      /* J = 18 */
(PID.TID 0000.0001)                 2.991205495886625E+05,      /* J = 19 */
(PID.TID 0000.0001)                 2.963063101754721E+05,      /* J = 20 */
(PID.TID 0000.0001)                 2.923567890694162E+05,      /* J = 21 */
(PID.TID 0000.0001)                 2.872580915202295E+05,      /* J = 22 */
(PID.TID 0000.0001)                 2.809856491525217E+05,      /* J = 23 */
(PID.TID 0000.0001)                 2.734980225206389E+05,      /* J = 24 */
(PID.TID 0000.0001)                 2.647274964828301E+05,      /* J = 25 */
(PID.TID 0000.0001)                 2.545652950875683E+05,      /* J = 26 */
(PID.TID 0000.0001)                 2.428369969078989E+05,      /* J = 27 */
(PID.TID 0000.0001)                 2.292584591272880E+05,      /* J = 28 */
(PID.TID 0000.0001)                 2.133486626971531E+05,      /* J = 29 */
(PID.TID 0000.0001)                 1.942331448101592E+05,      /* J = 30 */
(PID.TID 0000.0001)                 1.701080315742101E+05,      /* J = 31 */
(PID.TID 0000.0001)                 1.362652340208229E+05       /* J = 32 */
(PID.TID 0000.0001)     ;
(PID.TID 0000.0001) dyU =  /* dyU(:,1,:,1) ( units: m ) */
(PID.TID 0000.0001)                 8.015229982413632E+04,      /* I =  1 */
(PID.TID 0000.0001)                 1.362652340208229E+05,      /* I =  2 */
(PID.TID 0000.0001)                 1.701080315742101E+05,      /* I =  3 */
(PID.TID 0000.0001)      . . .
(PID.TID 0000.0001)                 2.963063101754721E+05,      /* I = 46 */
(PID.TID 0000.0001)                 2.991205495886625E+05,      /* I = 47 */
(PID.TID 0000.0001)                 3.008068453676764E+05,      /* I = 48 */
(PID.TID 0000.0001)                 3.013686170436881E+05,      /* I = 49 */
(PID.TID 0000.0001)                 3.008068453676764E+05,      /* I = 50 */
(PID.TID 0000.0001)                 2.991205495886625E+05,      /* I = 51 */
(PID.TID 0000.0001)      . . .
(PID.TID 0000.0001)                 1.942331448101592E+05,      /* I = 94 */
(PID.TID 0000.0001)                 1.701080315742101E+05,      /* I = 95 */
(PID.TID 0000.0001)                 1.362652340208229E+05,      /* I = 96 */
(PID.TID 0000.0001)                 8.015229982413632E+04,      /* I = 97 */
(PID.TID 0000.0001)                 1.362652340208229E+05,      /* I = 98 */
(PID.TID 0000.0001)                 1.701080315742101E+05,      /* I = 99 */
(PID.TID 0000.0001)      . . .
(PID.TID 0000.0001)                 2.963063101754721E+05,      /* I =142 */
(PID.TID 0000.0001)                 2.991205495886625E+05,      /* I =143 */
(PID.TID 0000.0001)                 3.008068453676764E+05,      /* I =144 */
(PID.TID 0000.0001)                 3.013686170436881E+05,      /* I =145 */
(PID.TID 0000.0001)                 3.008068453676764E+05,      /* I =146 */
(PID.TID 0000.0001)                 2.991205495886625E+05,      /* I =147 */
(PID.TID 0000.0001)      . . .
(PID.TID 0000.0001)                 1.942331448101592E+05,      /* I =190 */
(PID.TID 0000.0001)                 1.701080315742101E+05,      /* I =191 */
(PID.TID 0000.0001)                 1.362652340208229E+05       /* I =192 */
(PID.TID 0000.0001)     ;
(PID.TID 0000.0001) dyU =  /* dyU(1,:,1,:) ( units: m ) */
(PID.TID 0000.0001)                 8.015229982413632E+04,      /* J =  1 */
(PID.TID 0000.0001)                 1.333130744933864E+05,      /* J =  2 */
(PID.TID 0000.0001)                 1.691744868129062E+05,      /* J =  3 */
(PID.TID 0000.0001)                 1.937548202849060E+05,      /* J =  4 */
(PID.TID 0000.0001)                 2.130490056267208E+05,      /* J =  5 */
(PID.TID 0000.0001)                 2.290479919481738E+05,      /* J =  6 */
(PID.TID 0000.0001)                 2.426774358027003E+05,      /* J =  7 */
(PID.TID 0000.0001)                 2.544372984215561E+05,      /* J =  8 */
(PID.TID 0000.0001)                 2.646201463834826E+05,      /* J =  9 */
(PID.TID 0000.0001)                 2.734046499619031E+05,      /* J = 10 */
(PID.TID 0000.0001)                 2.809019351693761E+05,      /* J = 11 */
(PID.TID 0000.0001)                 2.871811105274442E+05,      /* J = 12 */
(PID.TID 0000.0001)                 2.922844849381675E+05,      /* J = 13 */
(PID.TID 0000.0001)                 2.962371870847826E+05,      /* J = 14 */
(PID.TID 0000.0001)                 2.990534755671296E+05,      /* J = 15 */
(PID.TID 0000.0001)                 3.007409169495504E+05,      /* J = 16 */
(PID.TID 0000.0001)                 3.013031486919771E+05,      /* J = 17 */
(PID.TID 0000.0001)                 3.007409169495504E+05,      /* J = 18 */
(PID.TID 0000.0001)                 2.990534755671296E+05,      /* J = 19 */
(PID.TID 0000.0001)                 2.962371870847826E+05,      /* J = 20 */
(PID.TID 0000.0001)                 2.922844849381675E+05,      /* J = 21 */
(PID.TID 0000.0001)                 2.871811105274442E+05,      /* J = 22 */
(PID.TID 0000.0001)                 2.809019351693761E+05,      /* J = 23 */
(PID.TID 0000.0001)                 2.734046499619031E+05,      /* J = 24 */
(PID.TID 0000.0001)                 2.646201463834826E+05,      /* J = 25 */
(PID.TID 0000.0001)                 2.544372984215561E+05,      /* J = 26 */
(PID.TID 0000.0001)                 2.426774358027003E+05,      /* J = 27 */
(PID.TID 0000.0001)                 2.290479919481738E+05,      /* J = 28 */
(PID.TID 0000.0001)                 2.130490056267208E+05,      /* J = 29 */
(PID.TID 0000.0001)                 1.937548202849060E+05,      /* J = 30 */
(PID.TID 0000.0001)                 1.691744868129062E+05,      /* J = 31 */
(PID.TID 0000.0001)                 1.333130744933864E+05       /* J = 32 */
(PID.TID 0000.0001)     ;
(PID.TID 0000.0001) rA  =  /* rA (:,1,:,1) ( units: m^2 ) */
(PID.TID 0000.0001)                 1.549786705672200E+10,      /* I =  1 */
(PID.TID 0000.0001)                 2.487202533723944E+10,      /* I =  2 */
(PID.TID 0000.0001)                 3.392265412140352E+10,      /* I =  3 */
(PID.TID 0000.0001)      . . .
(PID.TID 0000.0001)                 8.871245486529788E+10,      /* I = 46 */
(PID.TID 0000.0001)                 9.005359372079962E+10,      /* I = 47 */
(PID.TID 0000.0001)                 9.072735712796770E+10,      /* I = 48 */
(PID.TID 0000.0001)                 9.072735712796770E+10,      /* I = 49 */
(PID.TID 0000.0001)                 9.005359372079962E+10,      /* I = 50 */
(PID.TID 0000.0001)                 8.871245486529788E+10,      /* I = 51 */
(PID.TID 0000.0001)      . . .
(PID.TID 0000.0001)                 3.392265412140352E+10,      /* I = 94 */
(PID.TID 0000.0001)                 2.487202533723944E+10,      /* I = 95 */
(PID.TID 0000.0001)                 1.549786705672200E+10,      /* I = 96 */
(PID.TID 0000.0001)                 1.549786705672200E+10,      /* I = 97 */
(PID.TID 0000.0001)                 2.487202533723944E+10,      /* I = 98 */
(PID.TID 0000.0001)                 3.392265412140352E+10,      /* I = 99 */
(PID.TID 0000.0001)      . . .
(PID.TID 0000.0001)                 8.871245486529788E+10,      /* I =142 */
(PID.TID 0000.0001)                 9.005359372079962E+10,      /* I =143 */
(PID.TID 0000.0001)                 9.072735712796770E+10,      /* I =144 */
(PID.TID 0000.0001)                 9.072735712796770E+10,      /* I =145 */
(PID.TID 0000.0001)                 9.005359372079962E+10,      /* I =146 */
(PID.TID 0000.0001)                 8.871245486529788E+10,      /* I =147 */
(PID.TID 0000.0001)      . . .
(PID.TID 0000.0001)                 3.392265412140352E+10,      /* I =190 */
(PID.TID 0000.0001)                 2.487202533723944E+10,      /* I =191 */
(PID.TID 0000.0001)                 1.549786705672200E+10       /* I =192 */
(PID.TID 0000.0001)     ;
(PID.TID 0000.0001) rA  =  /* rA (1,:,1,:) ( units: m^2 ) */
(PID.TID 0000.0001)                 1.549786705672200E+10,      /* J =  1 */
(PID.TID 0000.0001)                 2.487202533723944E+10,      /* J =  2 */
(PID.TID 0000.0001)                 3.392265412140352E+10,      /* J =  3 */
(PID.TID 0000.0001)                 4.200427377313133E+10,      /* J =  4 */
(PID.TID 0000.0001)                 4.931323764668228E+10,      /* J =  5 */
(PID.TID 0000.0001)                 5.597545074899419E+10,      /* J =  6 */
(PID.TID 0000.0001)                 6.205603937791459E+10,      /* J =  7 */
(PID.TID 0000.0001)                 6.758299971934573E+10,      /* J =  8 */
(PID.TID 0000.0001)                 7.256155653843707E+10,      /* J =  9 */
(PID.TID 0000.0001)                 7.698291833687604E+10,      /* J = 10 */
(PID.TID 0000.0001)                 8.083005486272011E+10,      /* J = 11 */
(PID.TID 0000.0001)                 8.408183191745641E+10,      /* J = 12 */
(PID.TID 0000.0001)                 8.671615787312848E+10,      /* J = 13 */
(PID.TID 0000.0001)                 8.871245486529788E+10,      /* J = 14 */
(PID.TID 0000.0001)                 9.005359372079964E+10,      /* J = 15 */
(PID.TID 0000.0001)     2 @  9.072735712796770E+10,             /* J = 16: 17 */
(PID.TID 0000.0001)                 9.005359372079964E+10,      /* J = 18 */
(PID.TID 0000.0001)                 8.871245486529788E+10,      /* J = 19 */
(PID.TID 0000.0001)                 8.671615787312848E+10,      /* J = 20 */
(PID.TID 0000.0001)                 8.408183191745641E+10,      /* J = 21 */
(PID.TID 0000.0001)                 8.083005486272011E+10,      /* J = 22 */
(PID.TID 0000.0001)                 7.698291833687604E+10,      /* J = 23 */
(PID.TID 0000.0001)                 7.256155653843707E+10,      /* J = 24 */
(PID.TID 0000.0001)                 6.758299971934573E+10,      /* J = 25 */
(PID.TID 0000.0001)                 6.205603937791459E+10,      /* J = 26 */
(PID.TID 0000.0001)                 5.597545074899419E+10,      /* J = 27 */
(PID.TID 0000.0001)                 4.931323764668228E+10,      /* J = 28 */
(PID.TID 0000.0001)                 4.200427377313133E+10,      /* J = 29 */
(PID.TID 0000.0001)                 3.392265412140352E+10,      /* J = 30 */
(PID.TID 0000.0001)                 2.487202533723944E+10,      /* J = 31 */
(PID.TID 0000.0001)                 1.549786705672200E+10       /* J = 32 */
(PID.TID 0000.0001)     ;
(PID.TID 0000.0001) rAw =  /* rAw(:,1,:,1) ( units: m^2 ) */
(PID.TID 0000.0001)                 1.146542574196578E+10,      /* I =  1 */
(PID.TID 0000.0001)                 1.953030837147821E+10,      /* I =  2 */
(PID.TID 0000.0001)                 2.933967873337320E+10,      /* I =  3 */
(PID.TID 0000.0001)      . . .
(PID.TID 0000.0001)                 8.781604517750543E+10,      /* I = 46 */
(PID.TID 0000.0001)                 8.948917519517891E+10,      /* I = 47 */
(PID.TID 0000.0001)                 9.049933392602551E+10,      /* I = 48 */
(PID.TID 0000.0001)                 9.083715262395341E+10,      /* I = 49 */
(PID.TID 0000.0001)                 9.049933392602551E+10,      /* I = 50 */
(PID.TID 0000.0001)                 8.948917519517891E+10,      /* I = 51 */
(PID.TID 0000.0001)      . . .
(PID.TID 0000.0001)                 3.796176706541101E+10,      /* I = 94 */
(PID.TID 0000.0001)                 2.933967873337320E+10,      /* I = 95 */
(PID.TID 0000.0001)                 1.953030837147821E+10,      /* I = 96 */
(PID.TID 0000.0001)                 1.146542574196578E+10,      /* I = 97 */
(PID.TID 0000.0001)                 1.953030837147821E+10,      /* I = 98 */
(PID.TID 0000.0001)                 2.933967873337320E+10,      /* I = 99 */
(PID.TID 0000.0001)      . . .
(PID.TID 0000.0001)                 8.781604517750543E+10,      /* I =142 */
(PID.TID 0000.0001)                 8.948917519517891E+10,      /* I =143 */
(PID.TID 0000.0001)                 9.049933392602551E+10,      /* I =144 */
(PID.TID 0000.0001)                 9.083715262395341E+10,      /* I =145 */
(PID.TID 0000.0001)                 9.049933392602551E+10,      /* I =146 */
(PID.TID 0000.0001)                 8.948917519517891E+10,      /* I =147 */
(PID.TID 0000.0001)      . . .
(PID.TID 0000.0001)                 3.796176706541101E+10,      /* I =190 */
(PID.TID 0000.0001)                 2.933967873337320E+10,      /* I =191 */
(PID.TID 0000.0001)                 1.953030837147821E+10       /* I =192 */
(PID.TID 0000.0001)     ;
(PID.TID 0000.0001) rAw =  /* rAw(1,:,1,:) ( units: m^2 ) */
(PID.TID 0000.0001)                 1.146542574196578E+10,      /* J =  1 */
(PID.TID 0000.0001)                 2.377787005983833E+10,      /* J =  2 */
(PID.TID 0000.0001)                 3.336273018972140E+10,      /* J =  3 */
(PID.TID 0000.0001)                 4.165099566747280E+10,      /* J =  4 */
(PID.TID 0000.0001)                 4.906782896008959E+10,      /* J =  5 */
(PID.TID 0000.0001)                 5.579613053300137E+10,      /* J =  6 */
(PID.TID 0000.0001)                 6.192151981164894E+10,      /* J =  7 */
(PID.TID 0000.0001)                 6.748097638954340E+10,      /* J =  8 */
(PID.TID 0000.0001)                 7.248418794208269E+10,      /* J =  9 */
(PID.TID 0000.0001)                 7.692477203447566E+10,      /* J = 10 */
(PID.TID 0000.0001)                 8.078707194826852E+10,      /* J = 11 */
(PID.TID 0000.0001)                 8.405076334249313E+10,      /* J = 12 */
(PID.TID 0000.0001)                 8.669423991218034E+10,      /* J = 13 */
(PID.TID 0000.0001)                 8.869721460381146E+10,      /* J = 14 */
(PID.TID 0000.0001)                 9.004272888354184E+10,      /* J = 15 */
(PID.TID 0000.0001)     2 @  9.071865929421040E+10,             /* J = 16: 17 */
(PID.TID 0000.0001)                 9.004272888354184E+10,      /* J = 18 */
(PID.TID 0000.0001)                 8.869721460381146E+10,      /* J = 19 */
(PID.TID 0000.0001)                 8.669423991218034E+10,      /* J = 20 */
(PID.TID 0000.0001)                 8.405076334249313E+10,      /* J = 21 */
(PID.TID 0000.0001)                 8.078707194826852E+10,      /* J = 22 */
(PID.TID 0000.0001)                 7.692477203447566E+10,      /* J = 23 */
(PID.TID 0000.0001)                 7.248418794208269E+10,      /* J = 24 */
(PID.TID 0000.0001)                 6.748097638954340E+10,      /* J = 25 */
(PID.TID 0000.0001)                 6.192151981164894E+10,      /* J = 26 */
(PID.TID 0000.0001)                 5.579613053300137E+10,      /* J = 27 */
(PID.TID 0000.0001)                 4.906782896008959E+10,      /* J = 28 */
(PID.TID 0000.0001)                 4.165099566747280E+10,      /* J = 29 */
(PID.TID 0000.0001)                 3.336273018972140E+10,      /* J = 30 */
(PID.TID 0000.0001)                 2.377787005983833E+10,      /* J = 31 */
(PID.TID 0000.0001)                 1.146542574196578E+10       /* J = 32 */
(PID.TID 0000.0001)     ;
(PID.TID 0000.0001) rAs =  /* rAs(:,1,:,1) ( units: m^2 ) */
(PID.TID 0000.0001)                 1.146542574196578E+10,      /* I =  1 */
(PID.TID 0000.0001)                 2.377787005983833E+10,      /* I =  2 */
(PID.TID 0000.0001)                 3.336273018972140E+10,      /* I =  3 */
(PID.TID 0000.0001)      . . .
(PID.TID 0000.0001)                 8.869721460381146E+10,      /* I = 46 */
(PID.TID 0000.0001)                 9.004272888354184E+10,      /* I = 47 */
(PID.TID 0000.0001)                 9.071865929421040E+10,      /* I = 48 */
(PID.TID 0000.0001)                 9.071865929421040E+10,      /* I = 49 */
(PID.TID 0000.0001)                 9.004272888354184E+10,      /* I = 50 */
(PID.TID 0000.0001)                 8.869721460381146E+10,      /* I = 51 */
(PID.TID 0000.0001)      . . .
(PID.TID 0000.0001)                 3.336273018972140E+10,      /* I = 94 */
(PID.TID 0000.0001)                 2.377787005983833E+10,      /* I = 95 */
(PID.TID 0000.0001)                 1.146542574196578E+10,      /* I = 96 */
(PID.TID 0000.0001)                 1.146542574196578E+10,      /* I = 97 */
(PID.TID 0000.0001)                 2.377787005983833E+10,      /* I = 98 */
(PID.TID 0000.0001)                 3.336273018972140E+10,      /* I = 99 */
(PID.TID 0000.0001)      . . .
(PID.TID 0000.0001)                 8.869721460381146E+10,      /* I =142 */
(PID.TID 0000.0001)                 9.004272888354184E+10,      /* I =143 */
(PID.TID 0000.0001)                 9.071865929421040E+10,      /* I =144 */
(PID.TID 0000.0001)                 9.071865929421040E+10,      /* I =145 */
(PID.TID 0000.0001)                 9.004272888354184E+10,      /* I =146 */
(PID.TID 0000.0001)                 8.869721460381146E+10,      /* I =147 */
(PID.TID 0000.0001)      . . .
(PID.TID 0000.0001)                 3.336273018972140E+10,      /* I =190 */
(PID.TID 0000.0001)                 2.377787005983833E+10,      /* I =191 */
(PID.TID 0000.0001)                 1.146542574196578E+10       /* I =192 */
(PID.TID 0000.0001)     ;
(PID.TID 0000.0001) rAs =  /* rAs(1,:,1,:) ( units: m^2 ) */
(PID.TID 0000.0001)                 1.146542574196578E+10,      /* J =  1 */
(PID.TID 0000.0001)                 1.953030837147821E+10,      /* J =  2 */
(PID.TID 0000.0001)                 2.933967873337320E+10,      /* J =  3 */
(PID.TID 0000.0001)                 3.796176706541101E+10,      /* J =  4 */
(PID.TID 0000.0001)                 4.567569462064098E+10,      /* J =  5 */
(PID.TID 0000.0001)                 5.267377164042021E+10,      /* J =  6 */
(PID.TID 0000.0001)                 5.905615583203223E+10,      /* J =  7 */
(PID.TID 0000.0001)                 6.487043381386549E+10,      /* J =  8 */
(PID.TID 0000.0001)                 7.013339442433482E+10,      /* J =  9 */
(PID.TID 0000.0001)                 7.484316069116351E+10,      /* J = 10 */
(PID.TID 0000.0001)                 7.898662143005907E+10,      /* J = 11 */
(PID.TID 0000.0001)                 8.254445101987663E+10,      /* J = 12 */
(PID.TID 0000.0001)                 8.549478360691351E+10,      /* J = 13 */
(PID.TID 0000.0001)                 8.781604517750543E+10,      /* J = 14 */
(PID.TID 0000.0001)                 8.948917519517891E+10,      /* J = 15 */
(PID.TID 0000.0001)                 9.049933392602551E+10,      /* J = 16 */
(PID.TID 0000.0001)                 9.083715262395341E+10,      /* J = 17 */
(PID.TID 0000.0001)                 9.049933392602551E+10,      /* J = 18 */
(PID.TID 0000.0001)                 8.948917519517891E+10,      /* J = 19 */
(PID.TID 0000.0001)                 8.781604517750543E+10,      /* J = 20 */
(PID.TID 0000.0001)                 8.549478360691351E+10,      /* J = 21 */
(PID.TID 0000.0001)                 8.254445101987663E+10,      /* J = 22 */
(PID.TID 0000.0001)                 7.898662143005907E+10,      /* J = 23 */
(PID.TID 0000.0001)                 7.484316069116351E+10,      /* J = 24 */
(PID.TID 0000.0001)                 7.013339442433482E+10,      /* J = 25 */
(PID.TID 0000.0001)                 6.487043381386549E+10,      /* J = 26 */
(PID.TID 0000.0001)                 5.905615583203223E+10,      /* J = 27 */
(PID.TID 0000.0001)                 5.267377164042021E+10,      /* J = 28 */
(PID.TID 0000.0001)                 4.567569462064098E+10,      /* J = 29 */
(PID.TID 0000.0001)                 3.796176706541101E+10,      /* J = 30 */
(PID.TID 0000.0001)                 2.933967873337320E+10,      /* J = 31 */
(PID.TID 0000.0001)                 1.953030837147821E+10       /* J = 32 */
(PID.TID 0000.0001)     ;
(PID.TID 0000.0001) globalArea = /* Integrated horizontal Area (m^2) */
(PID.TID 0000.0001)                 5.098642104278459E+14
(PID.TID 0000.0001)     ;
(PID.TID 0000.0001) hasWetCSCorners = /* Domain contains CS corners (True/False) */
(PID.TID 0000.0001)                   T
(PID.TID 0000.0001)     ;
(PID.TID 0000.0001) // =======================================================
(PID.TID 0000.0001) // End of Model config. summary
(PID.TID 0000.0001) // =======================================================
(PID.TID 0000.0001) 
(PID.TID 0000.0001) == Packages configuration : Check & print summary ==
(PID.TID 0000.0001) 
(PID.TID 0000.0001) ATM_PHYS_CHECK: #define ALLOW_ATM_PHYS
(PID.TID 0000.0001) atmPhys_addTendT = /* apply Atm-Phys tendency to Temperature Eq.*/
(PID.TID 0000.0001)                   T
(PID.TID 0000.0001)     ;
(PID.TID 0000.0001) atmPhys_addTendS = /* apply Atm-Phys tendency to Salinity Eq.*/
(PID.TID 0000.0001)                   T
(PID.TID 0000.0001)     ;
(PID.TID 0000.0001) atmPhys_addTendU = /* apply Atm-Phys tendency to U momentum Eq.*/
(PID.TID 0000.0001)                   T
(PID.TID 0000.0001)     ;
(PID.TID 0000.0001) atmPhys_addTendV = /* apply Atm-Phys tendency to V momentum Eq.*/
(PID.TID 0000.0001)                   T
(PID.TID 0000.0001)     ;
(PID.TID 0000.0001) atmPhys_stepSST = /* step forward SST field */
(PID.TID 0000.0001)                   F
(PID.TID 0000.0001)     ;
(PID.TID 0000.0001) atmPhys_dampUVfac = /* U,V danping coefficient (1/s) */
(PID.TID 0000.0001)    20 @  0.000000000000000E+00,             /* K =  1: 20 */
(PID.TID 0000.0001)                 1.446759259259259E-06,      /* K = 21 */
(PID.TID 0000.0001)                 2.893518518518518E-06,      /* K = 22 */
(PID.TID 0000.0001)                 5.787037037037037E-06,      /* K = 23 */
(PID.TID 0000.0001)                 1.157407407407407E-05,      /* K = 24 */
(PID.TID 0000.0001)                 2.314814814814815E-05,      /* K = 25 */
(PID.TID 0000.0001)                 4.629629629629629E-05       /* K = 26 */
(PID.TID 0000.0001)     ;
(PID.TID 0000.0001) atmPhys_sstFile = /* SST input file */
(PID.TID 0000.0001)               'SST_symEx3.bin'
(PID.TID 0000.0001)     ;
(PID.TID 0000.0001) atmPhys_qFlxFile = /* Q-flux input file */
(PID.TID 0000.0001)               ''
(PID.TID 0000.0001)     ;
(PID.TID 0000.0001) atmPhys_mxldFile = /* Mixed-Layer Depth inp. file */
(PID.TID 0000.0001)               ''
(PID.TID 0000.0001)     ;
(PID.TID 0000.0001) atmPhys_albedoFile = /* Albedo input file */
(PID.TID 0000.0001)               ''
(PID.TID 0000.0001)     ;
(PID.TID 0000.0001) 
(PID.TID 0000.0001) GAD_CHECK: #define ALLOW_GENERIC_ADVDIFF
(PID.TID 0000.0001) // =======================================================
(PID.TID 0000.0001) // Check Model config. (CONFIG_CHECK):
(PID.TID 0000.0001) // CONFIG_CHECK : Normal End
(PID.TID 0000.0001) // =======================================================
(PID.TID 0000.0001) 
(PID.TID 0000.0001)  MDS_READ_FIELD: opening global file: ini_theta_26l.bin
(PID.TID 0000.0001)  MDS_READ_FIELD: opening global file: ini_specQ_26l.bin
(PID.TID 0000.0001) Start initial hydrostatic pressure computation
(PID.TID 0000.0001) Iteration   1, RMS-difference =  3.507436152430E+04
(PID.TID 0000.0001) Iteration   2, RMS-difference =  0.000000000000E+00
(PID.TID 0000.0001) Initial hydrostatic pressure converged.
(PID.TID 0000.0001) 
(PID.TID 0000.0001)  write diagnostics summary to file ioUnit:      6
Iter.Nb:         0 ; Time(s):  0.0000000000000E+00
------------------------------------------------------------------------
2D/3D diagnostics: Number of lists:     2
------------------------------------------------------------------------
listId=    1 ; file name: surfDiag
 nFlds, nActive,       freq     &     phase        , nLev               
   16  |   16  |6220800000.000000         0.000000 |   1
 levels:   1
 diag# | name   |   ipt  |  iMate | kLev|   count |   mate.C|           
    23 |ETAN    |      1 |      0 |   1 |      0(x 12) |
    24 |ETANSQ  |     13 |      0 |   1 |      0(x 12) |
    25 |DETADT2 |     25 |      0 |   1 |      0(x 12) |
   218 |AtPhCAPE|     37 |      0 |   1 |      0(x 12) |
   199 |AtPhCnvP|     49 |      0 |   1 |      0(x 12) |
   200 |AtPhLscP|     61 |      0 |   1 |      0(x 12) |
   214 |AtPhSens|     73 |      0 |   1 |      0(x 12) |
   215 |AtPhEvap|     85 |      0 |   1 |      0(x 12) |
   216 |AtPhTauX|     97 |    109 |   1 |      0(x 12) |
   217 |AtPhTauY|    109 |     97 |   1 |      0(x 12) |
   192 |AtPh_SST|    121 |      0 |   1 |      0(x 12) |
   207 |AtPhInSR|    133 |      0 |   1 |      0(x 12) |
   209 |AtPhOLR |    145 |      0 |   1 |      0(x 12) |
   211 |AtPhNSSR|    157 |      0 |   1 |      0(x 12) |
   212 |AtPhDSLR|    169 |      0 |   1 |      0(x 12) |
   213 |AtPhUSLR|    181 |      0 |   1 |      0(x 12) |
------------------------------------------------------------------------
listId=    2 ; file name: dynDiag
 nFlds, nActive,       freq     &     phase        , nLev               
   20  |   20  |6220800000.000000         0.000000 |  26
 levels:   1   2   3   4   5   6   7   8   9  10  11  12  13  14  15  16  17  18  19  20  21  22  23  24  25
 levels:  26
 diag# | name   |   ipt  |  iMate | kLev|   count |   mate.C|           
    29 |UVEL    |    193 |    297 |  26 |      0(x  4) |
    30 |VVEL    |    297 |    193 |  26 |      0(x  4) |
    31 |WVEL    |    401 |      0 |  26 |      0(x  4) |
    26 |THETA   |    505 |      0 |  26 |      0(x  4) |
    27 |SALT    |    609 |      0 |  26 |      0(x  4) |
    34 |UVELSQ  |    713 |    817 |  26 |      0(x  4) |
    35 |VVELSQ  |    817 |    713 |  26 |      0(x  4) |
    36 |WVELSQ  |    921 |      0 |  26 |      0(x  4) |
    32 |THETASQ |   1025 |      0 |  26 |      0(x  4) |
    33 |SALTSQ  |   1129 |      0 |  26 |      0(x  4) |
    43 |UVELMASS|   1233 |   1337 |  26 |      0(x  4) |
    44 |VVELMASS|   1337 |   1233 |  26 |      0(x  4) |
    39 |UV_VEL_C|   1441 |   1441 |  26 |      0(x  4) |
    28 |RELHUM  |   1545 |      0 |  26 |      0(x  4) |
   110 |ADVx_TH |   1649 |   1753 |  26 |      0(x  4) |
   111 |ADVy_TH |   1753 |   1649 |  26 |      0(x  4) |
   109 |ADVr_TH |   1857 |      0 |  26 |      0(x  4) |
   117 |ADVx_SLT|   1961 |   2065 |  26 |      0(x  4) |
   118 |ADVy_SLT|   2065 |   1961 |  26 |      0(x  4) |
   116 |ADVr_SLT|   2169 |      0 |  26 |      0(x  4) |
------------------------------------------------------------------------
Global & Regional Statistics diagnostics: Number of lists:     3
------------------------------------------------------------------------
listId=   1 ; file name: dynStDiag
 nFlds, nActive,       freq     &     phase        |                    
   11  |   11  |    864000.000000         0.000000 |
 Regions:   0
 diag# | name   |   ipt  |  iMate |    Volume   |   mate-Vol. |         
    23 |ETAN    |      1 |      0 | 0.00000E+00 |
    26 |THETA   |      2 |      0 | 0.00000E+00 |
    27 |SALT    |     28 |      0 | 0.00000E+00 |
    28 |RELHUM  |     54 |      0 | 0.00000E+00 |
    37 |UE_VEL_C|     80 |      0 | 0.00000E+00 |
    38 |VN_VEL_C|    106 |      0 | 0.00000E+00 |
    31 |WVEL    |    132 |      0 | 0.00000E+00 |
   193 |AtPhdTdt|    158 |      0 | 0.00000E+00 |
   194 |AtPhdQdt|    184 |      0 | 0.00000E+00 |
   195 |AtPhdUdt|    210 |      0 | 0.00000E+00 |
   196 |AtPhdVdt|    236 |      0 | 0.00000E+00 |
------------------------------------------------------------------------
listId=   2 ; file name: diffStDiag
 nFlds, nActive,       freq     &     phase        |                    
    7  |    7  |    864000.000000         0.000000 |
 Regions:   0
 diag# | name   |   ipt  |  iMate |    Volume   |   mate-Vol. |         
   197 |AtPhDifT|    262 |      0 | 0.00000E+00 |
   198 |AtPhDifM|    288 |      0 | 0.00000E+00 |
   229 |AtPhDisH|    314 |      0 | 0.00000E+00 |
   227 |AtPhdtTg|    340 |      0 | 0.00000E+00 |
   228 |AtPhdtQg|    366 |      0 | 0.00000E+00 |
   191 |SHAP_dKE|    392 |      0 | 0.00000E+00 |
    99 |MoistCor|    418 |      0 | 0.00000E+00 |
------------------------------------------------------------------------
listId=   3 ; file name: flxStDiag
 nFlds, nActive,       freq     &     phase        |                    
   13  |   13  |    864000.000000         0.000000 |
 Regions:   0
 diag# | name   |   ipt  |  iMate |    Volume   |   mate-Vol. |         
   214 |AtPhSens|    444 |      0 | 0.00000E+00 |
   215 |AtPhEvap|    445 |      0 | 0.00000E+00 |
   216 |AtPhTauX|    446 |      0 | 0.00000E+00 |
   217 |AtPhTauY|    447 |      0 | 0.00000E+00 |
   218 |AtPhCAPE|    448 |      0 | 0.00000E+00 |
   199 |AtPhCnvP|    449 |      0 | 0.00000E+00 |
   200 |AtPhLscP|    450 |      0 | 0.00000E+00 |
   192 |AtPh_SST|    451 |      0 | 0.00000E+00 |
   207 |AtPhInSR|    452 |      0 | 0.00000E+00 |
   209 |AtPhOLR |    453 |      0 | 0.00000E+00 |
   211 |AtPhNSSR|    454 |      0 | 0.00000E+00 |
   212 |AtPhDSLR|    455 |      0 | 0.00000E+00 |
   213 |AtPhUSLR|    456 |      0 | 0.00000E+00 |
------------------------------------------------------------------------
(PID.TID 0000.0001)  MDS_READ_FIELD: opening global file: SST_symEx3.bin
(PID.TID 0000.0001) // =======================================================
(PID.TID 0000.0001) // Model current state
(PID.TID 0000.0001) // =======================================================
(PID.TID 0000.0001) 
(PID.TID 0000.0001) // =======================================================
(PID.TID 0000.0001) // Begin MONITOR dynamic field statistics
(PID.TID 0000.0001) // =======================================================
(PID.TID 0000.0001) %MON time_tsnumber                =                     0
(PID.TID 0000.0001) %MON time_secondsf                =   0.0000000000000E+00
(PID.TID 0000.0001) %MON dynstat_eta_max              =   0.0000000000000E+00
(PID.TID 0000.0001) %MON dynstat_eta_min              =   0.0000000000000E+00
(PID.TID 0000.0001) %MON dynstat_eta_mean             =   0.0000000000000E+00
(PID.TID 0000.0001) %MON dynstat_eta_sd               =   0.0000000000000E+00
(PID.TID 0000.0001) %MON dynstat_eta_del2             =   0.0000000000000E+00
(PID.TID 0000.0001) %MON dynstat_uvel_max             =   0.0000000000000E+00
(PID.TID 0000.0001) %MON dynstat_uvel_min             =   0.0000000000000E+00
(PID.TID 0000.0001) %MON dynstat_uvel_mean            =   0.0000000000000E+00
(PID.TID 0000.0001) %MON dynstat_uvel_sd              =   0.0000000000000E+00
(PID.TID 0000.0001) %MON dynstat_uvel_del2            =   0.0000000000000E+00
(PID.TID 0000.0001) %MON dynstat_vvel_max             =   0.0000000000000E+00
(PID.TID 0000.0001) %MON dynstat_vvel_min             =   0.0000000000000E+00
(PID.TID 0000.0001) %MON dynstat_vvel_mean            =   0.0000000000000E+00
(PID.TID 0000.0001) %MON dynstat_vvel_sd              =   0.0000000000000E+00
(PID.TID 0000.0001) %MON dynstat_vvel_del2            =   0.0000000000000E+00
(PID.TID 0000.0001) %MON dynstat_wvel_max             =   0.0000000000000E+00
(PID.TID 0000.0001) %MON dynstat_wvel_min             =   0.0000000000000E+00
(PID.TID 0000.0001) %MON dynstat_wvel_mean            =   0.0000000000000E+00
(PID.TID 0000.0001) %MON dynstat_wvel_sd              =   0.0000000000000E+00
(PID.TID 0000.0001) %MON dynstat_wvel_del2            =   0.0000000000000E+00
(PID.TID 0000.0001) %MON dynstat_theta_max            =   1.1535634846852E+03
(PID.TID 0000.0001) %MON dynstat_theta_min            =   2.5507757432656E+02
(PID.TID 0000.0001) %MON dynstat_theta_mean           =   3.2787660662240E+02
(PID.TID 0000.0001) %MON dynstat_theta_sd             =   9.0371224687477E+01
(PID.TID 0000.0001) %MON dynstat_theta_del2           =   5.5192238657586E-04
(PID.TID 0000.0001) %MON dynstat_salt_max             =   2.0315162198281E-02
(PID.TID 0000.0001) %MON dynstat_salt_min             =   0.0000000000000E+00
(PID.TID 0000.0001) %MON dynstat_salt_mean            =   1.7953625902710E-03
(PID.TID 0000.0001) %MON dynstat_salt_sd              =   3.7984703449388E-03
(PID.TID 0000.0001) %MON dynstat_salt_del2            =   1.3625554215944E-07
(PID.TID 0000.0001) %MON trAdv_CFL_u_max              =   0.0000000000000E+00
(PID.TID 0000.0001) %MON trAdv_CFL_v_max              =   0.0000000000000E+00
(PID.TID 0000.0001) %MON trAdv_CFL_w_max              =   0.0000000000000E+00
(PID.TID 0000.0001) %MON advcfl_uvel_max              =   0.0000000000000E+00
(PID.TID 0000.0001) %MON advcfl_vvel_max              =   0.0000000000000E+00
(PID.TID 0000.0001) %MON advcfl_wvel_max              =   0.0000000000000E+00
(PID.TID 0000.0001) %MON advcfl_W_hf_max              =   0.0000000000000E+00
(PID.TID 0000.0001) %MON am_eta_mean                  =   0.0000000000000E+00
(PID.TID 0000.0001) %MON am_uZo_mean                  =   0.0000000000000E+00
(PID.TID 0000.0001) %MON am_tot_mean                  =   0.0000000000000E+00
(PID.TID 0000.0001) %MON pe_b_mean                    =   0.0000000000000E+00
(PID.TID 0000.0001) %MON ke_max                       =   0.0000000000000E+00
(PID.TID 0000.0001) %MON ke_mean                      =   0.0000000000000E+00
(PID.TID 0000.0001) %MON ke_vol                       =   5.0986421042785E+19
(PID.TID 0000.0001) %MON vort_r_min                   =   0.0000000000000E+00
(PID.TID 0000.0001) %MON vort_r_max                   =   0.0000000000000E+00
(PID.TID 0000.0001) %MON vort_a_mean                  =  -2.4513551737851E-21
(PID.TID 0000.0001) %MON vort_a_sd                    =   8.4202189509969E-05
(PID.TID 0000.0001) %MON vort_p_mean                  =  -2.4513551737851E-21
(PID.TID 0000.0001) %MON vort_p_sd                    =   8.4202189509969E-05
(PID.TID 0000.0001) %MON surfExpan_theta_mean         =   0.0000000000000E+00
(PID.TID 0000.0001) %MON surfExpan_salt_mean          =   0.0000000000000E+00
(PID.TID 0000.0001) %MON surfExpan_Heat_mean          =   0.0000000000000E+00
(PID.TID 0000.0001) %MON En_Budget_T2PE_mean          =   0.0000000000000E+00
(PID.TID 0000.0001) // =======================================================
(PID.TID 0000.0001) // End MONITOR dynamic field statistics
(PID.TID 0000.0001) // =======================================================
(PID.TID 0000.0001)   Exporting atmospheric surf fluxes at iter=         0
(PID.TID 0000.0001)   Importing  oceanic surface fields at iter=         0
(PID.TID 0000.0001) SURFACE_FLUX_INIT: opening data.atm_gray
(PID.TID 0000.0001)  OPEN_COPY_DATA_FILE: opening file data.atm_gray
(PID.TID 0000.0001) // =======================================================
(PID.TID 0000.0001) // Parameter file "data.atm_gray"
(PID.TID 0000.0001) // =======================================================
(PID.TID 0000.0001) >
(PID.TID 0000.0001) > &atmosphere_nml
(PID.TID 0000.0001) >    turb = .TRUE.,
(PID.TID 0000.0001) >    ldry_convection = .false.,
(PID.TID 0000.0001) >    lwet_convection = .TRUE.,
(PID.TID 0000.0001) >    do_virtual = .false.,
(PID.TID 0000.0001) >    two_stream = .true.,
(PID.TID 0000.0001) >    mixed_layer_bc = .false.,
(PID.TID 0000.0001) >    roughness_heat = 0.05,
(PID.TID 0000.0001) >    roughness_moist = 0.05,
(PID.TID 0000.0001) >    roughness_mom = 0.05,
(PID.TID 0000.0001) > /
(PID.TID 0000.0001) >
(PID.TID 0000.0001) > &radiation_nml
(PID.TID 0000.0001) >  select_incSW  = 1,
(PID.TID 0000.0001) >  solar_constant= 1365.,
(PID.TID 0000.0001) ># yearLength=
(PID.TID 0000.0001) ># yearPhase =
(PID.TID 0000.0001) ># obliquity =
(PID.TID 0000.0001) >  del_sol=1.,
(PID.TID 0000.0001) ># ir_tau_eq=
(PID.TID 0000.0001) ># ir_tau_pole=
(PID.TID 0000.0001) >  atm_abs= 0.22,
(PID.TID 0000.0001) ># value that Ruth is using as default:
(PID.TID 0000.0001) ># atm_abs= 0.2486,
(PID.TID 0000.0001) ># sw_diff=
(PID.TID 0000.0001) ># linear_tau=
(PID.TID 0000.0001) ># del_sw=
(PID.TID 0000.0001) >  albedo_value=0.38,
(PID.TID 0000.0001) ># window=
(PID.TID 0000.0001) ># wv_exponent=
(PID.TID 0000.0001) ># solar_exponent=
(PID.TID 0000.0001) >  wv_exponent=0.,
(PID.TID 0000.0001) > /
(PID.TID 0000.0001) >
(PID.TID 0000.0001) > &lscale_cond_nml
(PID.TID 0000.0001) ># hc =
(PID.TID 0000.0001) ># do_evap=
(PID.TID 0000.0001) > /
(PID.TID 0000.0001) >
(PID.TID 0000.0001) > &dargan_bettsmiller_nml
(PID.TID 0000.0001) >#-- default:
(PID.TID 0000.0001) >#   tau_bm = 7200.,
(PID.TID 0000.0001) >#   rhbm   = 0.8,
(PID.TID 0000.0001) >#   do_virtual   = .FALSE.,
(PID.TID 0000.0001) >#   do_shallower = .FALSE.,
(PID.TID 0000.0001) >#   do_changeqref= .FALSE.,
(PID.TID 0000.0001) >#   do_envsat    = .FALSE.,
(PID.TID 0000.0001) >#   do_taucape   = .FALSE.,
(PID.TID 0000.0001) >#     capetaubm  = 900.,
(PID.TID 0000.0001) >#     tau_min    = 2400.,
(PID.TID 0000.0001) >#   do_bm_shift  = .FALSE.,
(PID.TID 0000.0001) >#-- POG choice:
(PID.TID 0000.0001) >#  rhbm = 0.7,
(PID.TID 0000.0001) >   do_virtual= .TRUE.,
(PID.TID 0000.0001) >   do_shallower= .TRUE.,
(PID.TID 0000.0001) > /
(PID.TID 0000.0001) >
(PID.TID 0000.0001) > &surface_flux_nml
(PID.TID 0000.0001) > /
(PID.TID 0000.0001) >
(PID.TID 0000.0001) > &vert_turb_driver_nml
(PID.TID 0000.0001) >#  do_shallow_conv, do_mellor_yamada,
(PID.TID 0000.0001) >#  gust_scheme, constant_gust, use_tau,
(PID.TID 0000.0001) >#  do_molecular_diffusion
(PID.TID 0000.0001) >  do_mellor_yamada=.FALSE.,
(PID.TID 0000.0001) > /
(PID.TID 0000.0001) >
(PID.TID 0000.0001) > &diffusivity_nml
(PID.TID 0000.0001) >#  fixed_depth, depth_0, frac_inner,
(PID.TID 0000.0001) >#  rich_crit_pbl, entr_ratio, parcel_buoy,
(PID.TID 0000.0001) >#  znom, free_atm_diff, free_atm_skyhi_diff,
(PID.TID 0000.0001) >#  pbl_mcm, rich_crit_diff, mix_len, rich_prandtl,
(PID.TID 0000.0001) >#  background_m, background_t, ampns, ampns_max,
(PID.TID 0000.0001) >#  do_virtual_non_mcm
(PID.TID 0000.0001) > /
(PID.TID 0000.0001) >
(PID.TID 0000.0001) > &monin_obukhov_nml
(PID.TID 0000.0001) > /
(PID.TID 0000.0001) >
(PID.TID 0000.0001) > &my25_turb_nml
(PID.TID 0000.0001) > /
(PID.TID 0000.0001) >
(PID.TID 0000.0001) > &shallow_conv_nml
(PID.TID 0000.0001) > /
(PID.TID 0000.0001) >
(PID.TID 0000.0001) > &mixed_layer_nml
(PID.TID 0000.0001) ># evaporation, qflux_amp, depth, qflux_width
(PID.TID 0000.0001) >  depth=5000.,
(PID.TID 0000.0001) > /
(PID.TID 0000.0001) 
(PID.TID 0000.0001) SURFACE_FLUX_INIT: finished reading data.atm_gray
(PID.TID 0000.0001) MONIN_OBUKHOV_INIT: opening data.atm_gray
(PID.TID 0000.0001)  OPEN_COPY_DATA_FILE: opening file data.atm_gray
(PID.TID 0000.0001) // =======================================================
(PID.TID 0000.0001) // Parameter file "data.atm_gray"
(PID.TID 0000.0001) // =======================================================
(PID.TID 0000.0001) >
(PID.TID 0000.0001) > &atmosphere_nml
(PID.TID 0000.0001) >    turb = .TRUE.,
(PID.TID 0000.0001) >    ldry_convection = .false.,
(PID.TID 0000.0001) >    lwet_convection = .TRUE.,
(PID.TID 0000.0001) >    do_virtual = .false.,
(PID.TID 0000.0001) >    two_stream = .true.,
(PID.TID 0000.0001) >    mixed_layer_bc = .false.,
(PID.TID 0000.0001) >    roughness_heat = 0.05,
(PID.TID 0000.0001) >    roughness_moist = 0.05,
(PID.TID 0000.0001) >    roughness_mom = 0.05,
(PID.TID 0000.0001) > /
(PID.TID 0000.0001) >
(PID.TID 0000.0001) > &radiation_nml
(PID.TID 0000.0001) >  select_incSW  = 1,
(PID.TID 0000.0001) >  solar_constant= 1365.,
(PID.TID 0000.0001) ># yearLength=
(PID.TID 0000.0001) ># yearPhase =
(PID.TID 0000.0001) ># obliquity =
(PID.TID 0000.0001) >  del_sol=1.,
(PID.TID 0000.0001) ># ir_tau_eq=
(PID.TID 0000.0001) ># ir_tau_pole=
(PID.TID 0000.0001) >  atm_abs= 0.22,
(PID.TID 0000.0001) ># value that Ruth is using as default:
(PID.TID 0000.0001) ># atm_abs= 0.2486,
(PID.TID 0000.0001) ># sw_diff=
(PID.TID 0000.0001) ># linear_tau=
(PID.TID 0000.0001) ># del_sw=
(PID.TID 0000.0001) >  albedo_value=0.38,
(PID.TID 0000.0001) ># window=
(PID.TID 0000.0001) ># wv_exponent=
(PID.TID 0000.0001) ># solar_exponent=
(PID.TID 0000.0001) >  wv_exponent=0.,
(PID.TID 0000.0001) > /
(PID.TID 0000.0001) >
(PID.TID 0000.0001) > &lscale_cond_nml
(PID.TID 0000.0001) ># hc =
(PID.TID 0000.0001) ># do_evap=
(PID.TID 0000.0001) > /
(PID.TID 0000.0001) >
(PID.TID 0000.0001) > &dargan_bettsmiller_nml
(PID.TID 0000.0001) >#-- default:
(PID.TID 0000.0001) >#   tau_bm = 7200.,
(PID.TID 0000.0001) >#   rhbm   = 0.8,
(PID.TID 0000.0001) >#   do_virtual   = .FALSE.,
(PID.TID 0000.0001) >#   do_shallower = .FALSE.,
(PID.TID 0000.0001) >#   do_changeqref= .FALSE.,
(PID.TID 0000.0001) >#   do_envsat    = .FALSE.,
(PID.TID 0000.0001) >#   do_taucape   = .FALSE.,
(PID.TID 0000.0001) >#     capetaubm  = 900.,
(PID.TID 0000.0001) >#     tau_min    = 2400.,
(PID.TID 0000.0001) >#   do_bm_shift  = .FALSE.,
(PID.TID 0000.0001) >#-- POG choice:
(PID.TID 0000.0001) >#  rhbm = 0.7,
(PID.TID 0000.0001) >   do_virtual= .TRUE.,
(PID.TID 0000.0001) >   do_shallower= .TRUE.,
(PID.TID 0000.0001) > /
(PID.TID 0000.0001) >
(PID.TID 0000.0001) > &surface_flux_nml
(PID.TID 0000.0001) > /
(PID.TID 0000.0001) >
(PID.TID 0000.0001) > &vert_turb_driver_nml
(PID.TID 0000.0001) >#  do_shallow_conv, do_mellor_yamada,
(PID.TID 0000.0001) >#  gust_scheme, constant_gust, use_tau,
(PID.TID 0000.0001) >#  do_molecular_diffusion
(PID.TID 0000.0001) >  do_mellor_yamada=.FALSE.,
(PID.TID 0000.0001) > /
(PID.TID 0000.0001) >
(PID.TID 0000.0001) > &diffusivity_nml
(PID.TID 0000.0001) >#  fixed_depth, depth_0, frac_inner,
(PID.TID 0000.0001) >#  rich_crit_pbl, entr_ratio, parcel_buoy,
(PID.TID 0000.0001) >#  znom, free_atm_diff, free_atm_skyhi_diff,
(PID.TID 0000.0001) >#  pbl_mcm, rich_crit_diff, mix_len, rich_prandtl,
(PID.TID 0000.0001) >#  background_m, background_t, ampns, ampns_max,
(PID.TID 0000.0001) >#  do_virtual_non_mcm
(PID.TID 0000.0001) > /
(PID.TID 0000.0001) >
(PID.TID 0000.0001) > &monin_obukhov_nml
(PID.TID 0000.0001) > /
(PID.TID 0000.0001) >
(PID.TID 0000.0001) > &my25_turb_nml
(PID.TID 0000.0001) > /
(PID.TID 0000.0001) >
(PID.TID 0000.0001) > &shallow_conv_nml
(PID.TID 0000.0001) > /
(PID.TID 0000.0001) >
(PID.TID 0000.0001) > &mixed_layer_nml
(PID.TID 0000.0001) ># evaporation, qflux_amp, depth, qflux_width
(PID.TID 0000.0001) >  depth=5000.,
(PID.TID 0000.0001) > /
(PID.TID 0000.0001) 
(PID.TID 0000.0001) MONIN_OBUKHOV_INIT: finished reading data.atm_gray
(PID.TID 0000.0001) DIFFUSIVITY_INIT: opening data.atm_gray
(PID.TID 0000.0001)  OPEN_COPY_DATA_FILE: opening file data.atm_gray
(PID.TID 0000.0001) // =======================================================
(PID.TID 0000.0001) // Parameter file "data.atm_gray"
(PID.TID 0000.0001) // =======================================================
(PID.TID 0000.0001) >
(PID.TID 0000.0001) > &atmosphere_nml
(PID.TID 0000.0001) >    turb = .TRUE.,
(PID.TID 0000.0001) >    ldry_convection = .false.,
(PID.TID 0000.0001) >    lwet_convection = .TRUE.,
(PID.TID 0000.0001) >    do_virtual = .false.,
(PID.TID 0000.0001) >    two_stream = .true.,
(PID.TID 0000.0001) >    mixed_layer_bc = .false.,
(PID.TID 0000.0001) >    roughness_heat = 0.05,
(PID.TID 0000.0001) >    roughness_moist = 0.05,
(PID.TID 0000.0001) >    roughness_mom = 0.05,
(PID.TID 0000.0001) > /
(PID.TID 0000.0001) >
(PID.TID 0000.0001) > &radiation_nml
(PID.TID 0000.0001) >  select_incSW  = 1,
(PID.TID 0000.0001) >  solar_constant= 1365.,
(PID.TID 0000.0001) ># yearLength=
(PID.TID 0000.0001) ># yearPhase =
(PID.TID 0000.0001) ># obliquity =
(PID.TID 0000.0001) >  del_sol=1.,
(PID.TID 0000.0001) ># ir_tau_eq=
(PID.TID 0000.0001) ># ir_tau_pole=
(PID.TID 0000.0001) >  atm_abs= 0.22,
(PID.TID 0000.0001) ># value that Ruth is using as default:
(PID.TID 0000.0001) ># atm_abs= 0.2486,
(PID.TID 0000.0001) ># sw_diff=
(PID.TID 0000.0001) ># linear_tau=
(PID.TID 0000.0001) ># del_sw=
(PID.TID 0000.0001) >  albedo_value=0.38,
(PID.TID 0000.0001) ># window=
(PID.TID 0000.0001) ># wv_exponent=
(PID.TID 0000.0001) ># solar_exponent=
(PID.TID 0000.0001) >  wv_exponent=0.,
(PID.TID 0000.0001) > /
(PID.TID 0000.0001) >
(PID.TID 0000.0001) > &lscale_cond_nml
(PID.TID 0000.0001) ># hc =
(PID.TID 0000.0001) ># do_evap=
(PID.TID 0000.0001) > /
(PID.TID 0000.0001) >
(PID.TID 0000.0001) > &dargan_bettsmiller_nml
(PID.TID 0000.0001) >#-- default:
(PID.TID 0000.0001) >#   tau_bm = 7200.,
(PID.TID 0000.0001) >#   rhbm   = 0.8,
(PID.TID 0000.0001) >#   do_virtual   = .FALSE.,
(PID.TID 0000.0001) >#   do_shallower = .FALSE.,
(PID.TID 0000.0001) >#   do_changeqref= .FALSE.,
(PID.TID 0000.0001) >#   do_envsat    = .FALSE.,
(PID.TID 0000.0001) >#   do_taucape   = .FALSE.,
(PID.TID 0000.0001) >#     capetaubm  = 900.,
(PID.TID 0000.0001) >#     tau_min    = 2400.,
(PID.TID 0000.0001) >#   do_bm_shift  = .FALSE.,
(PID.TID 0000.0001) >#-- POG choice:
(PID.TID 0000.0001) >#  rhbm = 0.7,
(PID.TID 0000.0001) >   do_virtual= .TRUE.,
(PID.TID 0000.0001) >   do_shallower= .TRUE.,
(PID.TID 0000.0001) > /
(PID.TID 0000.0001) >
(PID.TID 0000.0001) > &surface_flux_nml
(PID.TID 0000.0001) > /
(PID.TID 0000.0001) >
(PID.TID 0000.0001) > &vert_turb_driver_nml
(PID.TID 0000.0001) >#  do_shallow_conv, do_mellor_yamada,
(PID.TID 0000.0001) >#  gust_scheme, constant_gust, use_tau,
(PID.TID 0000.0001) >#  do_molecular_diffusion
(PID.TID 0000.0001) >  do_mellor_yamada=.FALSE.,
(PID.TID 0000.0001) > /
(PID.TID 0000.0001) >
(PID.TID 0000.0001) > &diffusivity_nml
(PID.TID 0000.0001) >#  fixed_depth, depth_0, frac_inner,
(PID.TID 0000.0001) >#  rich_crit_pbl, entr_ratio, parcel_buoy,
(PID.TID 0000.0001) >#  znom, free_atm_diff, free_atm_skyhi_diff,
(PID.TID 0000.0001) >#  pbl_mcm, rich_crit_diff, mix_len, rich_prandtl,
(PID.TID 0000.0001) >#  background_m, background_t, ampns, ampns_max,
(PID.TID 0000.0001) >#  do_virtual_non_mcm
(PID.TID 0000.0001) > /
(PID.TID 0000.0001) >
(PID.TID 0000.0001) > &monin_obukhov_nml
(PID.TID 0000.0001) > /
(PID.TID 0000.0001) >
(PID.TID 0000.0001) > &my25_turb_nml
(PID.TID 0000.0001) > /
(PID.TID 0000.0001) >
(PID.TID 0000.0001) > &shallow_conv_nml
(PID.TID 0000.0001) > /
(PID.TID 0000.0001) >
(PID.TID 0000.0001) > &mixed_layer_nml
(PID.TID 0000.0001) ># evaporation, qflux_amp, depth, qflux_width
(PID.TID 0000.0001) >  depth=5000.,
(PID.TID 0000.0001) > /
(PID.TID 0000.0001) 
(PID.TID 0000.0001) DIFFUSIVITY_INIT: finished reading data.atm_gray
(PID.TID 0000.0001) SOLVE_FOR_PRESSURE: putPmEinXvector =    F
 cg2d: Sum(rhs),rhsMax =   2.98314262181520E-10  1.15643245709385E+02
(PID.TID 0000.0001)      cg2d_init_res =   3.76284312959005E+03
(PID.TID 0000.0001)      cg2d_iters(min,last) =      -1      12
(PID.TID 0000.0001)      cg2d_last_res =   5.53427932930136E-11
(PID.TID 0000.0001) // =======================================================
(PID.TID 0000.0001) // Begin MONITOR dynamic field statistics
(PID.TID 0000.0001) // =======================================================
(PID.TID 0000.0001) %MON time_tsnumber                =                     1
(PID.TID 0000.0001) %MON time_secondsf                =   3.6000000000000E+02
(PID.TID 0000.0001) %MON dynstat_eta_max              =   1.4279177601168E+01
(PID.TID 0000.0001) %MON dynstat_eta_min              =  -8.7978186035698E+00
(PID.TID 0000.0001) %MON dynstat_eta_mean             =   2.6778371680327E-15
(PID.TID 0000.0001) %MON dynstat_eta_sd               =   7.0826410630125E+00
(PID.TID 0000.0001) %MON dynstat_eta_del2             =   3.6116162885768E-02
(PID.TID 0000.0001) %MON dynstat_uvel_max             =   1.3016800146121E+00
(PID.TID 0000.0001) %MON dynstat_uvel_min             =  -1.3016800146121E+00
(PID.TID 0000.0001) %MON dynstat_uvel_mean            =   0.0000000000000E+00
(PID.TID 0000.0001) %MON dynstat_uvel_sd              =   4.2127420517919E-01
(PID.TID 0000.0001) %MON dynstat_uvel_del2            =   1.0799549628826E-04
(PID.TID 0000.0001) %MON dynstat_vvel_max             =   1.3016800146121E+00
(PID.TID 0000.0001) %MON dynstat_vvel_min             =  -1.3016800146121E+00
(PID.TID 0000.0001) %MON dynstat_vvel_mean            =  -2.5104723450307E-18
(PID.TID 0000.0001) %MON dynstat_vvel_sd              =   4.2127420517919E-01
(PID.TID 0000.0001) %MON dynstat_vvel_del2            =   1.0799549628826E-04
(PID.TID 0000.0001) %MON dynstat_wvel_max             =   1.7170597841977E-02
(PID.TID 0000.0001) %MON dynstat_wvel_min             =  -1.4115125359213E-02
(PID.TID 0000.0001) %MON dynstat_wvel_mean            =   4.3242579828442E-18
(PID.TID 0000.0001) %MON dynstat_wvel_sd              =   4.2423217473424E-03
(PID.TID 0000.0001) %MON dynstat_wvel_del2            =   8.6997822494988E-06
(PID.TID 0000.0001) %MON dynstat_theta_max            =   1.1536174751755E+03
(PID.TID 0000.0001) %MON dynstat_theta_min            =   2.5512006243575E+02
(PID.TID 0000.0001) %MON dynstat_theta_mean           =   3.2787649881739E+02
(PID.TID 0000.0001) %MON dynstat_theta_sd             =   9.0371891346055E+01
(PID.TID 0000.0001) %MON dynstat_theta_del2           =   5.5169713276427E-04
(PID.TID 0000.0001) %MON dynstat_salt_max             =   2.0315407882417E-02
(PID.TID 0000.0001) %MON dynstat_salt_min             =   0.0000000000000E+00
(PID.TID 0000.0001) %MON dynstat_salt_mean            =   1.7995564713765E-03
(PID.TID 0000.0001) %MON dynstat_salt_sd              =   3.8012117985273E-03
(PID.TID 0000.0001) %MON dynstat_salt_del2            =   1.5474848644159E-07
(PID.TID 0000.0001) %MON trAdv_CFL_u_max              =   2.6601976393371E-03
(PID.TID 0000.0001) %MON trAdv_CFL_v_max              =   2.6601976393371E-03
(PID.TID 0000.0001) %MON trAdv_CFL_w_max              =   1.3788457929456E-03
(PID.TID 0000.0001) %MON advcfl_uvel_max              =   3.4356045491987E-03
(PID.TID 0000.0001) %MON advcfl_vvel_max              =   3.4356045491987E-03
(PID.TID 0000.0001) %MON advcfl_wvel_max              =   1.2513369344864E-03
(PID.TID 0000.0001) %MON advcfl_W_hf_max              =   1.3788457929456E-03
(PID.TID 0000.0001) %MON am_eta_mean                  =   0.0000000000000E+00
(PID.TID 0000.0001) %MON am_uZo_mean                  =   3.6777087767332E-08
(PID.TID 0000.0001) %MON am_tot_mean                  =   3.6777087767332E-08
(PID.TID 0000.0001) %MON pe_b_mean                    =   2.1245751682931E-04
(PID.TID 0000.0001) %MON ke_max                       =   8.5367290608323E-01
(PID.TID 0000.0001) %MON ke_mean                      =   1.7747195594936E-01
(PID.TID 0000.0001) %MON ke_vol                       =   5.0986421042785E+19
(PID.TID 0000.0001) %MON vort_r_min                   =  -3.1534869439159E-08
(PID.TID 0000.0001) %MON vort_r_max                   =   3.1534869439159E-08
(PID.TID 0000.0001) %MON vort_a_mean                  =   7.3540655213554E-21
(PID.TID 0000.0001) %MON vort_a_sd                    =   8.4202189512624E-05
(PID.TID 0000.0001) %MON vort_p_mean                  =   7.3540655213554E-21
(PID.TID 0000.0001) %MON vort_p_sd                    =   8.4202189512624E-05
(PID.TID 0000.0001) %MON surfExpan_theta_mean         =  -2.8165385257266E-01
(PID.TID 0000.0001) %MON surfExpan_salt_mean          =  -2.6045821454539E-05
(PID.TID 0000.0001) %MON surfExpan_Heat_mean          =  -2.4699235031096E+01
(PID.TID 0000.0001) %MON En_Budget_T2PE_mean          =   2.8651652141541E+00
(PID.TID 0000.0001) // =======================================================
(PID.TID 0000.0001) // End MONITOR dynamic field statistics
(PID.TID 0000.0001) // =======================================================
 cg2d: Sum(rhs),rhsMax =  -3.78349795937538E-10  3.16094521947621E+02
(PID.TID 0000.0001)      cg2d_init_res =   7.45860181680364E+03
(PID.TID 0000.0001)      cg2d_iters(min,last) =      -1      12
(PID.TID 0000.0001)      cg2d_last_res =   8.44299910331351E-11
(PID.TID 0000.0001) // =======================================================
(PID.TID 0000.0001) // Begin MONITOR dynamic field statistics
(PID.TID 0000.0001) // =======================================================
(PID.TID 0000.0001) %MON time_tsnumber                =                     2
(PID.TID 0000.0001) %MON time_secondsf                =   7.2000000000000E+02
(PID.TID 0000.0001) %MON dynstat_eta_max              =   4.0724419728861E+01
(PID.TID 0000.0001) %MON dynstat_eta_min              =  -2.6346141786132E+01
(PID.TID 0000.0001) %MON dynstat_eta_mean             =  -4.6862150440572E-15
(PID.TID 0000.0001) %MON dynstat_eta_sd               =   2.1157316117223E+01
(PID.TID 0000.0001) %MON dynstat_eta_del2             =   8.1655952625248E-02
(PID.TID 0000.0001) %MON dynstat_uvel_max             =   2.5956301233850E+00
(PID.TID 0000.0001) %MON dynstat_uvel_min             =  -2.5959440387802E+00
(PID.TID 0000.0001) %MON dynstat_uvel_mean            =   5.0864536899336E-03
(PID.TID 0000.0001) %MON dynstat_uvel_sd              =   8.4123850515410E-01
(PID.TID 0000.0001) %MON dynstat_uvel_del2            =   2.0793479435176E-04
(PID.TID 0000.0001) %MON dynstat_vvel_max             =   2.5959250085521E+00
(PID.TID 0000.0001) %MON dynstat_vvel_min             =  -2.5957679251540E+00
(PID.TID 0000.0001) %MON dynstat_vvel_mean            =   5.1158610993960E-03
(PID.TID 0000.0001) %MON dynstat_vvel_sd              =   8.4123868020451E-01
(PID.TID 0000.0001) %MON dynstat_vvel_del2            =   2.0795876926671E-04
(PID.TID 0000.0001) %MON dynstat_wvel_max             =   3.2825127691578E-02
(PID.TID 0000.0001) %MON dynstat_wvel_min             =  -2.7087164261536E-02
(PID.TID 0000.0001) %MON dynstat_wvel_mean            =  -2.5159319172912E-18
(PID.TID 0000.0001) %MON dynstat_wvel_sd              =   8.4287463403585E-03
(PID.TID 0000.0001) %MON dynstat_wvel_del2            =   1.5680328212703E-05
(PID.TID 0000.0001) %MON dynstat_theta_max            =   1.1536895580189E+03
(PID.TID 0000.0001) %MON dynstat_theta_min            =   2.5519683747273E+02
(PID.TID 0000.0001) %MON dynstat_theta_mean           =   3.2787698776848E+02
(PID.TID 0000.0001) %MON dynstat_theta_sd             =   9.0372326040223E+01
(PID.TID 0000.0001) %MON dynstat_theta_del2           =   5.5370013416095E-04
(PID.TID 0000.0001) %MON dynstat_salt_max             =   2.0315653708615E-02
(PID.TID 0000.0001) %MON dynstat_salt_min             =   0.0000000000000E+00
(PID.TID 0000.0001) %MON dynstat_salt_mean            =   1.8036501850843E-03
(PID.TID 0000.0001) %MON dynstat_salt_sd              =   3.8037417576984E-03
(PID.TID 0000.0001) %MON dynstat_salt_del2            =   1.8257998023525E-07
(PID.TID 0000.0001) %MON trAdv_CFL_u_max              =   5.4661681455270E-03
(PID.TID 0000.0001) %MON trAdv_CFL_v_max              =   5.4661425841616E-03
(PID.TID 0000.0001) %MON trAdv_CFL_w_max              =   2.4909894204990E-03
(PID.TID 0000.0001) %MON advcfl_uvel_max              =   7.1387883997637E-03
(PID.TID 0000.0001) %MON advcfl_vvel_max              =   7.1385412171778E-03
(PID.TID 0000.0001) %MON advcfl_wvel_max              =   2.2607761869855E-03
(PID.TID 0000.0001) %MON advcfl_W_hf_max              =   2.4909894204990E-03
(PID.TID 0000.0001) %MON am_eta_mean                  =  -6.2347056404663E+08
(PID.TID 0000.0001) %MON am_uZo_mean                  =   6.2373481001033E+08
(PID.TID 0000.0001) %MON am_tot_mean                  =   2.6424596370220E+05
(PID.TID 0000.0001) %MON pe_b_mean                    =   1.8958448154115E-03
(PID.TID 0000.0001) %MON ke_max                       =   3.4111626738373E+00
(PID.TID 0000.0001) %MON ke_mean                      =   7.0770839183603E-01
(PID.TID 0000.0001) %MON ke_vol                       =   5.0986421042785E+19
(PID.TID 0000.0001) %MON vort_r_min                   =  -1.0859370361516E-07
(PID.TID 0000.0001) %MON vort_r_max                   =   1.0859234839348E-07
(PID.TID 0000.0001) %MON vort_a_mean                  =  -1.0295691729898E-19
(PID.TID 0000.0001) %MON vort_a_sd                    =   8.4206364615989E-05
(PID.TID 0000.0001) %MON vort_p_mean                  =  -1.0295691691969E-19
(PID.TID 0000.0001) %MON vort_p_sd                    =   8.4203755438745E-05
(PID.TID 0000.0001) %MON surfExpan_theta_mean         =  -5.6145488493090E-01
(PID.TID 0000.0001) %MON surfExpan_salt_mean          =  -5.1878754972117E-05
(PID.TID 0000.0001) %MON surfExpan_Heat_mean          =  -4.9238515233230E+01
(PID.TID 0000.0001) %MON En_Budget_T2PE_mean          =   5.7208598755118E+00
(PID.TID 0000.0001) // =======================================================
(PID.TID 0000.0001) // End MONITOR dynamic field statistics
(PID.TID 0000.0001) // =======================================================
 cg2d: Sum(rhs),rhsMax =   1.22236087918282E-09  6.03359438020220E+02
(PID.TID 0000.0001)      cg2d_init_res =   1.11043797041184E+04
(PID.TID 0000.0001)      cg2d_iters(min,last) =      -1      12
(PID.TID 0000.0001)      cg2d_last_res =   9.62502980018499E-11
(PID.TID 0000.0001) // =======================================================
(PID.TID 0000.0001) // Begin MONITOR dynamic field statistics
(PID.TID 0000.0001) // =======================================================
(PID.TID 0000.0001) %MON time_tsnumber                =                     3
(PID.TID 0000.0001) %MON time_secondsf                =   1.0800000000000E+03
(PID.TID 0000.0001) %MON dynstat_eta_max              =   7.7550668500838E+01
(PID.TID 0000.0001) %MON dynstat_eta_min              =  -5.2570198075162E+01
(PID.TID 0000.0001) %MON dynstat_eta_mean             =  -2.5439453096311E-14
(PID.TID 0000.0001) %MON dynstat_eta_sd               =   4.2126813473442E+01
(PID.TID 0000.0001) %MON dynstat_eta_del2             =   1.2211990724034E-01
(PID.TID 0000.0001) %MON dynstat_uvel_max             =   3.8768797915826E+00
(PID.TID 0000.0001) %MON dynstat_uvel_min             =  -3.8777186240234E+00
(PID.TID 0000.0001) %MON dynstat_uvel_mean            =   1.3318243535927E-02
(PID.TID 0000.0001) %MON dynstat_uvel_sd              =   1.2585666341634E+00
(PID.TID 0000.0001) %MON dynstat_uvel_del2            =   2.9875119177067E-04
(PID.TID 0000.0001) %MON dynstat_vvel_max             =   3.8776878185016E+00
(PID.TID 0000.0001) %MON dynstat_vvel_min             =  -3.8772466126101E+00
(PID.TID 0000.0001) %MON dynstat_vvel_mean            =   1.3406048258673E-02
(PID.TID 0000.0001) %MON dynstat_vvel_sd              =   1.2585671610686E+00
(PID.TID 0000.0001) %MON dynstat_vvel_del2            =   2.9880254849099E-04
(PID.TID 0000.0001) %MON dynstat_wvel_max             =   4.6241598448060E-02
(PID.TID 0000.0001) %MON dynstat_wvel_min             =  -3.9080744454171E-02
(PID.TID 0000.0001) %MON dynstat_wvel_mean            =   1.3208642565779E-17
(PID.TID 0000.0001) %MON dynstat_wvel_sd              =   1.2525019106284E-02
(PID.TID 0000.0001) %MON dynstat_wvel_del2            =   2.0696930667621E-05
(PID.TID 0000.0001) %MON dynstat_theta_max            =   1.1537734983941E+03
(PID.TID 0000.0001) %MON dynstat_theta_min            =   2.5532437478027E+02
(PID.TID 0000.0001) %MON dynstat_theta_mean           =   3.2787821660050E+02
(PID.TID 0000.0001) %MON dynstat_theta_sd             =   9.0372189917457E+01
(PID.TID 0000.0001) %MON dynstat_theta_del2           =   5.5737855365692E-04
(PID.TID 0000.0001) %MON dynstat_salt_max             =   2.0315899748885E-02
(PID.TID 0000.0001) %MON dynstat_salt_min             =   0.0000000000000E+00
(PID.TID 0000.0001) %MON dynstat_salt_mean            =   1.8074292401411E-03
(PID.TID 0000.0001) %MON dynstat_salt_sd              =   3.8063227324991E-03
(PID.TID 0000.0001) %MON dynstat_salt_del2            =   2.1608258153649E-07
(PID.TID 0000.0001) %MON trAdv_CFL_u_max              =   8.3485312795240E-03
(PID.TID 0000.0001) %MON trAdv_CFL_v_max              =   8.3483130616834E-03
(PID.TID 0000.0001) %MON trAdv_CFL_w_max              =   3.2357518986681E-03
(PID.TID 0000.0001) %MON advcfl_uvel_max              =   1.0778824852526E-02
(PID.TID 0000.0001) %MON advcfl_vvel_max              =   1.0778127145949E-02
(PID.TID 0000.0001) %MON advcfl_wvel_max              =   2.9369750325302E-03
(PID.TID 0000.0001) %MON advcfl_W_hf_max              =   3.2357518986681E-03
(PID.TID 0000.0001) %MON am_eta_mean                  =  -1.8676244999651E+09
(PID.TID 0000.0001) %MON am_uZo_mean                  =   1.8681131749034E+09
(PID.TID 0000.0001) %MON am_tot_mean                  =   4.8867493835592E+05
(PID.TID 0000.0001) %MON pe_b_mean                    =   7.5162091196073E-03
(PID.TID 0000.0001) %MON ke_max                       =   7.6238224825060E+00
(PID.TID 0000.0001) %MON ke_mean                      =   1.5841691846452E+00
(PID.TID 0000.0001) %MON ke_vol                       =   5.0986421042785E+19
(PID.TID 0000.0001) %MON vort_r_min                   =  -2.2127398422319E-07
(PID.TID 0000.0001) %MON vort_r_max                   =   2.2134493592687E-07
(PID.TID 0000.0001) %MON vort_a_mean                  =   1.8630299320767E-19
(PID.TID 0000.0001) %MON vort_a_sd                    =   8.4213132605619E-05
(PID.TID 0000.0001) %MON vort_p_mean                  =   1.8875434616057E-19
(PID.TID 0000.0001) %MON vort_p_sd                    =   8.4205314857480E-05
(PID.TID 0000.0001) %MON surfExpan_theta_mean         =  -8.3794758634235E-01
(PID.TID 0000.0001) %MON surfExpan_salt_mean          =  -7.7424247358142E-05
(PID.TID 0000.0001) %MON surfExpan_Heat_mean          =  -7.3493641677753E+01
(PID.TID 0000.0001) %MON En_Budget_T2PE_mean          =   8.5554517282546E+00
(PID.TID 0000.0001) // =======================================================
(PID.TID 0000.0001) // End MONITOR dynamic field statistics
(PID.TID 0000.0001) // =======================================================
 cg2d: Sum(rhs),rhsMax =   3.49245965480804E-10  9.99637294683985E+02
(PID.TID 0000.0001)      cg2d_init_res =   1.47091059656631E+04
(PID.TID 0000.0001)      cg2d_iters(min,last) =      -1      12
(PID.TID 0000.0001)      cg2d_last_res =   1.04497891733354E-10
(PID.TID 0000.0001) // =======================================================
(PID.TID 0000.0001) // Begin MONITOR dynamic field statistics
(PID.TID 0000.0001) // =======================================================
(PID.TID 0000.0001) %MON time_tsnumber                =                     4
(PID.TID 0000.0001) %MON time_secondsf                =   1.4400000000000E+03
(PID.TID 0000.0001) %MON dynstat_eta_max              =   1.2458280498616E+02
(PID.TID 0000.0001) %MON dynstat_eta_min              =  -8.7369752057777E+01
(PID.TID 0000.0001) %MON dynstat_eta_mean             =   8.0335115040981E-15
(PID.TID 0000.0001) %MON dynstat_eta_sd               =   6.9902167055428E+01
(PID.TID 0000.0001) %MON dynstat_eta_del2             =   1.5459774913113E-01
(PID.TID 0000.0001) %MON dynstat_uvel_max             =   5.1467873957959E+00
(PID.TID 0000.0001) %MON dynstat_uvel_min             =  -5.1484977354786E+00
(PID.TID 0000.0001) %MON dynstat_uvel_mean            =   2.4655487539942E-02
(PID.TID 0000.0001) %MON dynstat_uvel_sd              =   1.6726797871324E+00
(PID.TID 0000.0001) %MON dynstat_uvel_del2            =   3.8345505659723E-04
(PID.TID 0000.0001) %MON dynstat_vvel_max             =   5.1484725125126E+00
(PID.TID 0000.0001) %MON dynstat_vvel_min             =  -5.1475787690252E+00
(PID.TID 0000.0001) %MON dynstat_vvel_mean            =   2.4830589751876E-02
(PID.TID 0000.0001) %MON dynstat_vvel_sd              =   1.6726809623117E+00
(PID.TID 0000.0001) %MON dynstat_vvel_del2            =   3.8352654024642E-04
(PID.TID 0000.0001) %MON dynstat_wvel_max             =   5.7666863584960E-02
(PID.TID 0000.0001) %MON dynstat_wvel_min             =  -5.2729159909251E-02
(PID.TID 0000.0001) %MON dynstat_wvel_mean            =   1.1636185117472E-17
(PID.TID 0000.0001) %MON dynstat_wvel_sd              =   1.6542768040960E-02
(PID.TID 0000.0001) %MON dynstat_wvel_del2            =   2.4605293060093E-05
(PID.TID 0000.0001) %MON dynstat_theta_max            =   1.1538230925157E+03
(PID.TID 0000.0001) %MON dynstat_theta_min            =   2.5544944304566E+02
(PID.TID 0000.0001) %MON dynstat_theta_mean           =   3.2787985645164E+02
(PID.TID 0000.0001) %MON dynstat_theta_sd             =   9.0371758870983E+01
(PID.TID 0000.0001) %MON dynstat_theta_del2           =   5.6016372014565E-04
(PID.TID 0000.0001) %MON dynstat_salt_max             =   2.0316146074844E-02
(PID.TID 0000.0001) %MON dynstat_salt_min             =   0.0000000000000E+00
(PID.TID 0000.0001) %MON dynstat_salt_mean            =   1.8110074873372E-03
(PID.TID 0000.0001) %MON dynstat_salt_sd              =   3.8089330104007E-03
(PID.TID 0000.0001) %MON dynstat_salt_del2            =   2.5264799349176E-07
(PID.TID 0000.0001) %MON trAdv_CFL_u_max              =   1.1306970037744E-02
(PID.TID 0000.0001) %MON trAdv_CFL_v_max              =   1.1306378641293E-02
(PID.TID 0000.0001) %MON trAdv_CFL_w_max              =   3.8421896678366E-03
(PID.TID 0000.0001) %MON advcfl_uvel_max              =   1.4418692960957E-02
(PID.TID 0000.0001) %MON advcfl_vvel_max              =   1.4417085433036E-02
(PID.TID 0000.0001) %MON advcfl_wvel_max              =   3.4896199664595E-03
(PID.TID 0000.0001) %MON advcfl_W_hf_max              =   3.8421896678366E-03
(PID.TID 0000.0001) %MON am_eta_mean                  =  -3.7268055152963E+09
(PID.TID 0000.0001) %MON am_uZo_mean                  =   3.7273009364662E+09
(PID.TID 0000.0001) %MON am_tot_mean                  =   4.9542116991901E+05
(PID.TID 0000.0001) %MON pe_b_mean                    =   2.0694880094882E-02
(PID.TID 0000.0001) %MON ke_max                       =   1.3431555127031E+01
(PID.TID 0000.0001) %MON ke_mean                      =   2.7984718616072E+00
(PID.TID 0000.0001) %MON ke_vol                       =   5.0986421042785E+19
(PID.TID 0000.0001) %MON vort_r_min                   =  -3.6775559936968E-07
(PID.TID 0000.0001) %MON vort_r_max                   =   3.6796435459540E-07
(PID.TID 0000.0001) %MON vort_a_mean                  =   1.9365705872903E-19
(PID.TID 0000.0001) %MON vort_a_sd                    =   8.4222466349642E-05
(PID.TID 0000.0001) %MON vort_p_mean                  =   1.9610840903608E-19
(PID.TID 0000.0001) %MON vort_p_sd                    =   8.4206861455398E-05
(PID.TID 0000.0001) %MON surfExpan_theta_mean         =  -1.1103185300616E+00
(PID.TID 0000.0001) %MON surfExpan_salt_mean          =  -1.0263250243026E-04
(PID.TID 0000.0001) %MON surfExpan_Heat_mean          =  -9.7396484473233E+01
(PID.TID 0000.0001) %MON En_Budget_T2PE_mean          =   1.1364312963551E+01
(PID.TID 0000.0001) // =======================================================
(PID.TID 0000.0001) // End MONITOR dynamic field statistics
(PID.TID 0000.0001) // =======================================================
 cg2d: Sum(rhs),rhsMax =   3.49245965480804E-10  1.48956307716879E+03
(PID.TID 0000.0001)      cg2d_init_res =   1.82672725604024E+04
(PID.TID 0000.0001)      cg2d_iters(min,last) =      -1      12
(PID.TID 0000.0001)      cg2d_last_res =   1.29877816612141E-10
(PID.TID 0000.0001) // =======================================================
(PID.TID 0000.0001) // Begin MONITOR dynamic field statistics
(PID.TID 0000.0001) // =======================================================
(PID.TID 0000.0001) %MON time_tsnumber                =                     5
(PID.TID 0000.0001) %MON time_secondsf                =   1.8000000000000E+03
(PID.TID 0000.0001) %MON dynstat_eta_max              =   1.8564493913649E+02
(PID.TID 0000.0001) %MON dynstat_eta_min              =  -1.3061984755811E+02
(PID.TID 0000.0001) %MON dynstat_eta_mean             =  -2.1422697344262E-14
(PID.TID 0000.0001) %MON dynstat_eta_sd               =   1.0438916099519E+02
(PID.TID 0000.0001) %MON dynstat_eta_del2             =   1.8085951518111E-01
(PID.TID 0000.0001) %MON dynstat_uvel_max             =   6.4051942024688E+00
(PID.TID 0000.0001) %MON dynstat_uvel_min             =  -6.4077725330405E+00
(PID.TID 0000.0001) %MON dynstat_uvel_mean            =   3.9051844265687E-02
(PID.TID 0000.0001) %MON dynstat_uvel_sd              =   2.0828883800145E+00
(PID.TID 0000.0001) %MON dynstat_uvel_del2            =   4.6567165676797E-04
(PID.TID 0000.0001) %MON dynstat_vvel_max             =   6.4077662388069E+00
(PID.TID 0000.0001) %MON dynstat_vvel_min             =  -6.4063146264294E+00
(PID.TID 0000.0001) %MON dynstat_vvel_mean            =   3.9343038870783E-02
(PID.TID 0000.0001) %MON dynstat_vvel_sd              =   2.0828900960112E+00
(PID.TID 0000.0001) %MON dynstat_vvel_del2            =   4.6575702142582E-04
(PID.TID 0000.0001) %MON dynstat_wvel_max             =   6.7960353815495E-02
(PID.TID 0000.0001) %MON dynstat_wvel_min             =  -6.6704467595313E-02
(PID.TID 0000.0001) %MON dynstat_wvel_mean            =   1.0692710648488E-17
(PID.TID 0000.0001) %MON dynstat_wvel_sd              =   2.0494816058656E-02
(PID.TID 0000.0001) %MON dynstat_wvel_del2            =   2.7802531762814E-05
(PID.TID 0000.0001) %MON dynstat_theta_max            =   1.1538734975418E+03
(PID.TID 0000.0001) %MON dynstat_theta_min            =   2.5556841426777E+02
(PID.TID 0000.0001) %MON dynstat_theta_mean           =   3.2788163365170E+02
(PID.TID 0000.0001) %MON dynstat_theta_sd             =   9.0371249345782E+01
(PID.TID 0000.0001) %MON dynstat_theta_del2           =   5.6253669079783E-04
(PID.TID 0000.0001) %MON dynstat_salt_max             =   2.0316392747085E-02
(PID.TID 0000.0001) %MON dynstat_salt_min             =   0.0000000000000E+00
(PID.TID 0000.0001) %MON dynstat_salt_mean            =   1.8144773739483E-03
(PID.TID 0000.0001) %MON dynstat_salt_sd              =   3.8115556467625E-03
(PID.TID 0000.0001) %MON dynstat_salt_del2            =   2.8985814121251E-07
(PID.TID 0000.0001) %MON trAdv_CFL_u_max              =   1.4338005644137E-02
(PID.TID 0000.0001) %MON trAdv_CFL_v_max              =   1.4336885387804E-02
(PID.TID 0000.0001) %MON trAdv_CFL_w_max              =   4.4496440064713E-03
(PID.TID 0000.0001) %MON advcfl_uvel_max              =   1.8074843470355E-02
(PID.TID 0000.0001) %MON advcfl_vvel_max              =   1.8071918146592E-02
(PID.TID 0000.0001) %MON advcfl_wvel_max              =   4.0425769802804E-03
(PID.TID 0000.0001) %MON advcfl_W_hf_max              =   4.4496440064713E-03
(PID.TID 0000.0001) %MON am_eta_mean                  =  -6.1938196140007E+09
(PID.TID 0000.0001) %MON am_uZo_mean                  =   6.1939305791114E+09
(PID.TID 0000.0001) %MON am_tot_mean                  =   1.1096511077309E+05
(PID.TID 0000.0001) %MON pe_b_mean                    =   4.6152204393515E-02
(PID.TID 0000.0001) %MON ke_max                       =   2.0809261381220E+01
(PID.TID 0000.0001) %MON ke_mean                      =   4.3399640384546E+00
(PID.TID 0000.0001) %MON ke_vol                       =   5.0986421042784E+19
(PID.TID 0000.0001) %MON vort_r_min                   =  -5.4727174406383E-07
(PID.TID 0000.0001) %MON vort_r_max                   =   5.4766198830928E-07
(PID.TID 0000.0001) %MON vort_a_mean                  =  -1.1031098282033E-19
(PID.TID 0000.0001) %MON vort_a_sd                    =   8.4234337238641E-05
(PID.TID 0000.0001) %MON vort_p_mean                  =  -1.1031097810343E-19
(PID.TID 0000.0001) %MON vort_p_sd                    =   8.4208392993080E-05
(PID.TID 0000.0001) %MON surfExpan_theta_mean         =  -1.3777038900975E+00
(PID.TID 0000.0001) %MON surfExpan_salt_mean          =  -1.2743911022169E-04
(PID.TID 0000.0001) %MON surfExpan_Heat_mean          =  -1.2087426275508E+02
(PID.TID 0000.0001) %MON En_Budget_T2PE_mean          =   1.4142460838717E+01
(PID.TID 0000.0001) // =======================================================
(PID.TID 0000.0001) // End MONITOR dynamic field statistics
(PID.TID 0000.0001) // =======================================================
 cg2d: Sum(rhs),rhsMax =  -2.56113708019257E-09  2.07029137832842E+03
(PID.TID 0000.0001)      cg2d_init_res =   2.17669927892639E+04
(PID.TID 0000.0001)      cg2d_iters(min,last) =      -1      13
(PID.TID 0000.0001)      cg2d_last_res =   1.52220433546359E-11
(PID.TID 0000.0001) // =======================================================
(PID.TID 0000.0001) // Begin MONITOR dynamic field statistics
(PID.TID 0000.0001) // =======================================================
(PID.TID 0000.0001) %MON time_tsnumber                =                     6
(PID.TID 0000.0001) %MON time_secondsf                =   2.1600000000000E+03
(PID.TID 0000.0001) %MON dynstat_eta_max              =   2.5802688706272E+02
(PID.TID 0000.0001) %MON dynstat_eta_min              =  -1.8217157306007E+02
(PID.TID 0000.0001) %MON dynstat_eta_mean             =   1.0711348672131E-14
(PID.TID 0000.0001) %MON dynstat_eta_sd               =   1.4547932027487E+02
(PID.TID 0000.0001) %MON dynstat_eta_del2             =   2.0463628866220E-01
(PID.TID 0000.0001) %MON dynstat_uvel_max             =   7.6504827800920E+00
(PID.TID 0000.0001) %MON dynstat_uvel_min             =  -7.6540109601829E+00
(PID.TID 0000.0001) %MON dynstat_uvel_mean            =   5.6450654249500E-02
(PID.TID 0000.0001) %MON dynstat_uvel_sd              =   2.4885286341333E+00
(PID.TID 0000.0001) %MON dynstat_uvel_del2            =   5.4590516301680E-04
(PID.TID 0000.0001) %MON dynstat_vvel_max             =   7.6540387249295E+00
(PID.TID 0000.0001) %MON dynstat_vvel_min             =  -7.6519220541305E+00
(PID.TID 0000.0001) %MON dynstat_vvel_mean            =   5.6886540822635E-02
(PID.TID 0000.0001) %MON dynstat_vvel_sd              =   2.4885306300349E+00
(PID.TID 0000.0001) %MON dynstat_vvel_del2            =   5.4600633907860E-04
(PID.TID 0000.0001) %MON dynstat_wvel_max             =   7.7794284823223E-02
(PID.TID 0000.0001) %MON dynstat_wvel_min             =  -8.1399899469045E-02
(PID.TID 0000.0001) %MON dynstat_wvel_mean            =  -1.8869489379684E-18
(PID.TID 0000.0001) %MON dynstat_wvel_sd              =   2.4393178511702E-02
(PID.TID 0000.0001) %MON dynstat_wvel_del2            =   3.0819048743885E-05
(PID.TID 0000.0001) %MON dynstat_theta_max            =   1.1539436039602E+03
(PID.TID 0000.0001) %MON dynstat_theta_min            =   2.5568590494752E+02
(PID.TID 0000.0001) %MON dynstat_theta_mean           =   3.2788336159694E+02
(PID.TID 0000.0001) %MON dynstat_theta_sd             =   9.0370801537472E+01
(PID.TID 0000.0001) %MON dynstat_theta_del2           =   5.6620832135423E-04
(PID.TID 0000.0001) %MON dynstat_salt_max             =   2.0316639821187E-02
(PID.TID 0000.0001) %MON dynstat_salt_min             =   0.0000000000000E+00
(PID.TID 0000.0001) %MON dynstat_salt_mean            =   1.8179026956674E-03
(PID.TID 0000.0001) %MON dynstat_salt_sd              =   3.8141939668837E-03
(PID.TID 0000.0001) %MON dynstat_salt_del2            =   3.3058720050390E-07
(PID.TID 0000.0001) %MON trAdv_CFL_u_max              =   1.7435521848115E-02
(PID.TID 0000.0001) %MON trAdv_CFL_v_max              =   1.7433754362410E-02
(PID.TID 0000.0001) %MON trAdv_CFL_w_max              =   4.9677589178207E-03
(PID.TID 0000.0001) %MON advcfl_uvel_max              =   2.1718749265225E-02
(PID.TID 0000.0001) %MON advcfl_vvel_max              =   2.1714059932088E-02
(PID.TID 0000.0001) %MON advcfl_wvel_max              =   4.5148967155244E-03
(PID.TID 0000.0001) %MON advcfl_W_hf_max              =   4.9677589178207E-03
(PID.TID 0000.0001) %MON am_eta_mean                  =  -9.2597334499851E+09
(PID.TID 0000.0001) %MON am_uZo_mean                  =   9.2589011116851E+09
(PID.TID 0000.0001) %MON am_tot_mean                  =  -8.3233829994583E+05
(PID.TID 0000.0001) %MON pe_b_mean                    =   8.9636349574866E-02
(PID.TID 0000.0001) %MON ke_max                       =   2.9730349158493E+01
(PID.TID 0000.0001) %MON ke_mean                      =   6.1959911072077E+00
(PID.TID 0000.0001) %MON ke_vol                       =   5.0986421042785E+19
(PID.TID 0000.0001) %MON vort_r_min                   =  -7.5883658695557E-07
(PID.TID 0000.0001) %MON vort_r_max                   =   7.5942391396687E-07
(PID.TID 0000.0001) %MON vort_a_mean                  =   2.4513551737851E-21
(PID.TID 0000.0001) %MON vort_a_sd                    =   8.4248710421993E-05
(PID.TID 0000.0001) %MON vort_p_mean                  =   2.4513550144838E-21
(PID.TID 0000.0001) %MON vort_p_sd                    =   8.4209907421437E-05
(PID.TID 0000.0001) %MON surfExpan_theta_mean         =  -1.6392840906045E+00
(PID.TID 0000.0001) %MON surfExpan_salt_mean          =  -1.5177565450256E-04
(PID.TID 0000.0001) %MON surfExpan_Heat_mean          =  -1.4385800250467E+02
(PID.TID 0000.0001) %MON En_Budget_T2PE_mean          =   1.6885220929843E+01
(PID.TID 0000.0001) // =======================================================
(PID.TID 0000.0001) // End MONITOR dynamic field statistics
(PID.TID 0000.0001) // =======================================================
 cg2d: Sum(rhs),rhsMax =   9.31322574615479E-10  2.73865037305421E+03
(PID.TID 0000.0001)      cg2d_init_res =   2.51969941662177E+04
(PID.TID 0000.0001)      cg2d_iters(min,last) =      -1      13
(PID.TID 0000.0001)      cg2d_last_res =   2.44006906134759E-11
(PID.TID 0000.0001) // =======================================================
(PID.TID 0000.0001) // Begin MONITOR dynamic field statistics
(PID.TID 0000.0001) // =======================================================
(PID.TID 0000.0001) %MON time_tsnumber                =                     7
(PID.TID 0000.0001) %MON time_secondsf                =   2.5200000000000E+03
(PID.TID 0000.0001) %MON dynstat_eta_max              =   3.4133427267554E+02
(PID.TID 0000.0001) %MON dynstat_eta_min              =  -2.4185289479594E+02
(PID.TID 0000.0001) %MON dynstat_eta_mean             =  -3.2134046016392E-14
(PID.TID 0000.0001) %MON dynstat_eta_sd               =   1.9304469072048E+02
(PID.TID 0000.0001) %MON dynstat_eta_del2             =   2.2786935191951E-01
(PID.TID 0000.0001) %MON dynstat_uvel_max             =   8.8841384481873E+00
(PID.TID 0000.0001) %MON dynstat_uvel_min             =  -8.8893513219505E+00
(PID.TID 0000.0001) %MON dynstat_uvel_mean            =   7.6785641203303E-02
(PID.TID 0000.0001) %MON dynstat_uvel_sd              =   2.8889608611634E+00
(PID.TID 0000.0001) %MON dynstat_uvel_del2            =   6.2430178908251E-04
(PID.TID 0000.0001) %MON dynstat_vvel_max             =   8.8893469064911E+00
(PID.TID 0000.0001) %MON dynstat_vvel_min             =  -8.8861533317152E+00
(PID.TID 0000.0001) %MON dynstat_vvel_mean            =   7.7394603975272E-02
(PID.TID 0000.0001) %MON dynstat_vvel_sd              =   2.8889629280987E+00
(PID.TID 0000.0001) %MON dynstat_vvel_del2            =   6.2442228150092E-04
(PID.TID 0000.0001) %MON dynstat_wvel_max             =   8.7091869375933E-02
(PID.TID 0000.0001) %MON dynstat_wvel_min             =  -9.6483026012359E-02
(PID.TID 0000.0001) %MON dynstat_wvel_mean            =  -4.9060672387178E-17
(PID.TID 0000.0001) %MON dynstat_wvel_sd              =   2.8242539257820E-02
(PID.TID 0000.0001) %MON dynstat_wvel_del2            =   3.3862415606762E-05
(PID.TID 0000.0001) %MON dynstat_theta_max            =   1.1540368906926E+03
(PID.TID 0000.0001) %MON dynstat_theta_min            =   2.5580170666110E+02
(PID.TID 0000.0001) %MON dynstat_theta_mean           =   3.2788504783711E+02
(PID.TID 0000.0001) %MON dynstat_theta_sd             =   9.0370416668157E+01
(PID.TID 0000.0001) %MON dynstat_theta_del2           =   5.7138820967012E-04
(PID.TID 0000.0001) %MON dynstat_salt_max             =   2.0316887355022E-02
(PID.TID 0000.0001) %MON dynstat_salt_min             =   0.0000000000000E+00
(PID.TID 0000.0001) %MON dynstat_salt_mean            =   1.8212771106929E-03
(PID.TID 0000.0001) %MON dynstat_salt_sd              =   3.8168667693250E-03
(PID.TID 0000.0001) %MON dynstat_salt_del2            =   3.7231738687367E-07
(PID.TID 0000.0001) %MON trAdv_CFL_u_max              =   2.0592341236920E-02
(PID.TID 0000.0001) %MON trAdv_CFL_v_max              =   2.0589764092280E-02
(PID.TID 0000.0001) %MON trAdv_CFL_w_max              =   5.4238409118289E-03
(PID.TID 0000.0001) %MON advcfl_uvel_max              =   2.5363033544346E-02
(PID.TID 0000.0001) %MON advcfl_vvel_max              =   2.5356292134167E-02
(PID.TID 0000.0001) %MON advcfl_wvel_max              =   4.9313990306699E-03
(PID.TID 0000.0001) %MON advcfl_W_hf_max              =   5.4238409118289E-03
(PID.TID 0000.0001) %MON am_eta_mean                  =  -1.2913921112533E+10
(PID.TID 0000.0001) %MON am_uZo_mean                  =   1.2911431098131E+10
(PID.TID 0000.0001) %MON am_tot_mean                  =  -2.4900144017715E+06
(PID.TID 0000.0001) %MON pe_b_mean                    =   1.5783283549879E-01
(PID.TID 0000.0001) %MON ke_max                       =   4.0168048197530E+01
(PID.TID 0000.0001) %MON ke_mean                      =   8.3520438083417E+00
(PID.TID 0000.0001) %MON ke_vol                       =   5.0986421042785E+19
(PID.TID 0000.0001) %MON vort_r_min                   =  -1.0012672670494E-06
(PID.TID 0000.0001) %MON vort_r_max                   =   1.0020429725511E-06
(PID.TID 0000.0001) %MON vort_a_mean                  =   9.8054206951406E-20
(PID.TID 0000.0001) %MON vort_a_sd                    =   8.4265545510753E-05
(PID.TID 0000.0001) %MON vort_p_mean                  =   1.0050555300210E-19
(PID.TID 0000.0001) %MON vort_p_sd                    =   8.4211403418452E-05
(PID.TID 0000.0001) %MON surfExpan_theta_mean         =  -1.8942500141137E+00
(PID.TID 0000.0001) %MON surfExpan_salt_mean          =  -1.7558221111400E-04
(PID.TID 0000.0001) %MON surfExpan_Heat_mean          =  -1.6627938544164E+02
(PID.TID 0000.0001) %MON En_Budget_T2PE_mean          =   1.9587898176112E+01
(PID.TID 0000.0001) // =======================================================
(PID.TID 0000.0001) // End MONITOR dynamic field statistics
(PID.TID 0000.0001) // =======================================================
 cg2d: Sum(rhs),rhsMax =   2.32830643653870E-09  3.49116102507203E+03
(PID.TID 0000.0001)      cg2d_init_res =   2.85464486557064E+04
(PID.TID 0000.0001)      cg2d_iters(min,last) =      -1      13
(PID.TID 0000.0001)      cg2d_last_res =   3.47387716352457E-11
(PID.TID 0000.0001) // =======================================================
(PID.TID 0000.0001) // Begin MONITOR dynamic field statistics
(PID.TID 0000.0001) // =======================================================
(PID.TID 0000.0001) %MON time_tsnumber                =                     8
(PID.TID 0000.0001) %MON time_secondsf                =   2.8800000000000E+03
(PID.TID 0000.0001) %MON dynstat_eta_max              =   4.3513475512454E+02
(PID.TID 0000.0001) %MON dynstat_eta_min              =  -3.0947286559122E+02
(PID.TID 0000.0001) %MON dynstat_eta_mean             =   2.1422697344262E-14
(PID.TID 0000.0001) %MON dynstat_eta_sd               =   2.4693667098360E+02
(PID.TID 0000.0001) %MON dynstat_eta_del2             =   2.5109532669196E-01
(PID.TID 0000.0001) %MON dynstat_uvel_max             =   1.0103751325145E+01
(PID.TID 0000.0001) %MON dynstat_uvel_min             =  -1.0110162594517E+01
(PID.TID 0000.0001) %MON dynstat_uvel_mean            =   9.9981168241854E-02
(PID.TID 0000.0001) %MON dynstat_uvel_sd              =   3.2835653051351E+00
(PID.TID 0000.0001) %MON dynstat_uvel_del2            =   7.0078573356967E-04
(PID.TID 0000.0001) %MON dynstat_vvel_max             =   1.0110219797246E+01
(PID.TID 0000.0001) %MON dynstat_vvel_min             =  -1.0106042774533E+01
(PID.TID 0000.0001) %MON dynstat_vvel_mean            =   1.0079137234122E-01
(PID.TID 0000.0001) %MON dynstat_vvel_sd              =   3.2835669041206E+00
(PID.TID 0000.0001) %MON dynstat_vvel_del2            =   7.0093289790302E-04
(PID.TID 0000.0001) %MON dynstat_wvel_max             =   9.6528220144763E-02
(PID.TID 0000.0001) %MON dynstat_wvel_min             =  -1.1174323094974E-01
(PID.TID 0000.0001) %MON dynstat_wvel_mean            =   3.3336097904108E-17
(PID.TID 0000.0001) %MON dynstat_wvel_sd              =   3.2043437351400E-02
(PID.TID 0000.0001) %MON dynstat_wvel_del2            =   3.7017294656068E-05
(PID.TID 0000.0001) %MON dynstat_theta_max            =   1.1541406691743E+03
(PID.TID 0000.0001) %MON dynstat_theta_min            =   2.5591464182604E+02
(PID.TID 0000.0001) %MON dynstat_theta_mean           =   3.2788663336765E+02
(PID.TID 0000.0001) %MON dynstat_theta_sd             =   9.0370140318653E+01
(PID.TID 0000.0001) %MON dynstat_theta_del2           =   5.7747558911808E-04
(PID.TID 0000.0001) %MON dynstat_salt_max             =   2.0317135404100E-02
(PID.TID 0000.0001) %MON dynstat_salt_min             =   0.0000000000000E+00
(PID.TID 0000.0001) %MON dynstat_salt_mean            =   1.8246176028078E-03
(PID.TID 0000.0001) %MON dynstat_salt_sd              =   3.8195735824508E-03
(PID.TID 0000.0001) %MON dynstat_salt_del2            =   4.1520969575867E-07
(PID.TID 0000.0001) %MON trAdv_CFL_u_max              =   2.3801376891645E-02
(PID.TID 0000.0001) %MON trAdv_CFL_v_max              =   2.3797773769590E-02
(PID.TID 0000.0001) %MON trAdv_CFL_w_max              =   5.8325604674918E-03
(PID.TID 0000.0001) %MON advcfl_uvel_max              =   2.9013938205680E-02
(PID.TID 0000.0001) %MON advcfl_vvel_max              =   2.9004738229984E-02
(PID.TID 0000.0001) %MON advcfl_wvel_max              =   5.3054030860230E-03
(PID.TID 0000.0001) %MON advcfl_W_hf_max              =   5.8325604674918E-03
(PID.TID 0000.0001) %MON am_eta_mean                  =  -1.7144108364474E+10
(PID.TID 0000.0001) %MON am_uZo_mean                  =   1.7139106352841E+10
(PID.TID 0000.0001) %MON am_tot_mean                  =  -5.0020116336327E+06
(PID.TID 0000.0001) %MON pe_b_mean                    =   2.5825742305122E-01
(PID.TID 0000.0001) %MON ke_max                       =   5.2041426296441E+01
(PID.TID 0000.0001) %MON ke_mean                      =   1.0791883930833E+01
(PID.TID 0000.0001) %MON ke_vol                       =   5.0986421042785E+19
(PID.TID 0000.0001) %MON vort_r_min                   =  -1.2730595492702E-06
(PID.TID 0000.0001) %MON vort_r_max                   =   1.2740008236725E-06
(PID.TID 0000.0001) %MON vort_a_mean                  =   6.8637944865984E-20
(PID.TID 0000.0001) %MON vort_a_sd                    =   8.4284796710598E-05
(PID.TID 0000.0001) %MON vort_p_mean                  =   6.8637936654604E-20
(PID.TID 0000.0001) %MON vort_p_sd                    =   8.4212880391830E-05
(PID.TID 0000.0001) %MON surfExpan_theta_mean         =  -2.1418337918641E+00
(PID.TID 0000.0001) %MON surfExpan_salt_mean          =  -1.9879575185456E-04
(PID.TID 0000.0001) %MON surfExpan_Heat_mean          =  -1.8807344791695E+02
(PID.TID 0000.0001) %MON En_Budget_T2PE_mean          =   2.2246124669519E+01
(PID.TID 0000.0001) // =======================================================
(PID.TID 0000.0001) // End MONITOR dynamic field statistics
(PID.TID 0000.0001) // =======================================================
(PID.TID 0000.0001)   Exporting atmospheric surf fluxes at iter=         8
(PID.TID 0000.0001)   Importing  oceanic surface fields at iter=         8
 cg2d: Sum(rhs),rhsMax =   1.39698386192322E-09  4.32405985624462E+03
(PID.TID 0000.0001)      cg2d_init_res =   3.18047790422470E+04
(PID.TID 0000.0001)      cg2d_iters(min,last) =      -1      13
(PID.TID 0000.0001)      cg2d_last_res =   4.54566617638112E-11
(PID.TID 0000.0001) // =======================================================
(PID.TID 0000.0001) // Begin MONITOR dynamic field statistics
(PID.TID 0000.0001) // =======================================================
(PID.TID 0000.0001) %MON time_tsnumber                =                     9
(PID.TID 0000.0001) %MON time_secondsf                =   3.2400000000000E+03
(PID.TID 0000.0001) %MON dynstat_eta_max              =   5.3896114090539E+02
(PID.TID 0000.0001) %MON dynstat_eta_min              =  -3.8481470229862E+02
(PID.TID 0000.0001) %MON dynstat_eta_mean             =  -1.1782483539344E-13
(PID.TID 0000.0001) %MON dynstat_eta_sd               =   3.0698592868993E+02
(PID.TID 0000.0001) %MON dynstat_eta_del2             =   2.7455826312923E-01
(PID.TID 0000.0001) %MON dynstat_uvel_max             =   1.1305569616446E+01
(PID.TID 0000.0001) %MON dynstat_uvel_min             =  -1.1313279107525E+01
(PID.TID 0000.0001) %MON dynstat_uvel_mean            =   1.2595256774569E-01
(PID.TID 0000.0001) %MON dynstat_uvel_sd              =   3.6717453032716E+00
(PID.TID 0000.0001) %MON dynstat_uvel_del2            =   7.7545417125851E-04
(PID.TID 0000.0001) %MON dynstat_vvel_max             =   1.1313415939684E+01
(PID.TID 0000.0001) %MON dynstat_vvel_min             =  -1.1308134056389E+01
(PID.TID 0000.0001) %MON dynstat_vvel_mean            =   1.2699190971069E-01
(PID.TID 0000.0001) %MON dynstat_vvel_sd              =   3.6717458798712E+00
(PID.TID 0000.0001) %MON dynstat_vvel_del2            =   7.7563554614845E-04
(PID.TID 0000.0001) %MON dynstat_wvel_max             =   1.0610204780865E-01
(PID.TID 0000.0001) %MON dynstat_wvel_min             =  -1.2690597139377E-01
(PID.TID 0000.0001) %MON dynstat_wvel_mean            =  -6.7930161766862E-17
(PID.TID 0000.0001) %MON dynstat_wvel_sd              =   3.5794135757996E-02
(PID.TID 0000.0001) %MON dynstat_wvel_del2            =   4.0246953464956E-05
(PID.TID 0000.0001) %MON dynstat_theta_max            =   1.1542543777538E+03
(PID.TID 0000.0001) %MON dynstat_theta_min            =   2.5602625361041E+02
(PID.TID 0000.0001) %MON dynstat_theta_mean           =   3.2788808761009E+02
(PID.TID 0000.0001) %MON dynstat_theta_sd             =   9.0369997056121E+01
(PID.TID 0000.0001) %MON dynstat_theta_del2           =   5.8321026438905E-04
(PID.TID 0000.0001) %MON dynstat_salt_max             =   2.0317384000814E-02
(PID.TID 0000.0001) %MON dynstat_salt_min             =   0.0000000000000E+00
(PID.TID 0000.0001) %MON dynstat_salt_mean            =   1.8279314579082E-03
(PID.TID 0000.0001) %MON dynstat_salt_sd              =   3.8223013597015E-03
(PID.TID 0000.0001) %MON dynstat_salt_del2            =   4.5661477287614E-07
(PID.TID 0000.0001) %MON trAdv_CFL_u_max              =   2.7055915312592E-02
(PID.TID 0000.0001) %MON trAdv_CFL_v_max              =   2.7050899997912E-02
(PID.TID 0000.0001) %MON trAdv_CFL_w_max              =   6.2012574893653E-03
(PID.TID 0000.0001) %MON advcfl_uvel_max              =   3.2656047771236E-02
(PID.TID 0000.0001) %MON advcfl_vvel_max              =   3.2644701176742E-02
(PID.TID 0000.0001) %MON advcfl_wvel_max              =   5.6436686273459E-03
(PID.TID 0000.0001) %MON advcfl_W_hf_max              =   6.2012574893653E-03
(PID.TID 0000.0001) %MON am_eta_mean                  =  -2.1936407083438E+10
(PID.TID 0000.0001) %MON am_uZo_mean                  =   2.1927915727231E+10
(PID.TID 0000.0001) %MON am_tot_mean                  =  -8.4913562069969E+06
(PID.TID 0000.0001) %MON pe_b_mean                    =   3.9913386129885E-01
(PID.TID 0000.0001) %MON ke_max                       =   6.5285513542342E+01
(PID.TID 0000.0001) %MON ke_mean                      =   1.3497711186454E+01
(PID.TID 0000.0001) %MON ke_vol                       =   5.0986421042785E+19
(PID.TID 0000.0001) %MON vort_r_min                   =  -1.5725913814374E-06
(PID.TID 0000.0001) %MON vort_r_max                   =   1.5736668941054E-06
(PID.TID 0000.0001) %MON vort_a_mean                  =  -1.2747046903683E-19
(PID.TID 0000.0001) %MON vort_a_sd                    =   8.4306412718131E-05
(PID.TID 0000.0001) %MON vort_p_mean                  =  -1.2992180454343E-19
(PID.TID 0000.0001) %MON vort_p_sd                    =   8.4214338327201E-05
(PID.TID 0000.0001) %MON surfExpan_theta_mean         =  -2.3812970700126E+00
(PID.TID 0000.0001) %MON surfExpan_salt_mean          =  -2.2135612594346E-04
(PID.TID 0000.0001) %MON surfExpan_Heat_mean          =  -2.0917746770633E+02
(PID.TID 0000.0001) %MON En_Budget_T2PE_mean          =   2.4855665432199E+01
(PID.TID 0000.0001) // =======================================================
(PID.TID 0000.0001) // End MONITOR dynamic field statistics
(PID.TID 0000.0001) // =======================================================
 cg2d: Sum(rhs),rhsMax =   2.79396772384644E-09  5.23332791394862E+03
(PID.TID 0000.0001)      cg2d_init_res =   3.49612740514908E+04
(PID.TID 0000.0001)      cg2d_iters(min,last) =      -1      13
(PID.TID 0000.0001)      cg2d_last_res =   5.65846704604661E-11
(PID.TID 0000.0001) // =======================================================
(PID.TID 0000.0001) // Begin MONITOR dynamic field statistics
(PID.TID 0000.0001) // =======================================================
(PID.TID 0000.0001) %MON time_tsnumber                =                    10
(PID.TID 0000.0001) %MON time_secondsf                =   3.6000000000000E+03
(PID.TID 0000.0001) %MON dynstat_eta_max              =   6.5231531019081E+02
(PID.TID 0000.0001) %MON dynstat_eta_min              =  -4.6764123168676E+02
(PID.TID 0000.0001) %MON dynstat_eta_mean             =   3.2134046016392E-14
(PID.TID 0000.0001) %MON dynstat_eta_sd               =   3.7300280065807E+02
(PID.TID 0000.0001) %MON dynstat_eta_del2             =   2.9875894216716E-01
(PID.TID 0000.0001) %MON dynstat_uvel_max             =   1.2488107425999E+01
(PID.TID 0000.0001) %MON dynstat_uvel_min             =  -1.2497780248988E+01
(PID.TID 0000.0001) %MON dynstat_uvel_mean            =   1.5460662556991E-01
(PID.TID 0000.0001) %MON dynstat_uvel_sd              =   4.0529318051516E+00
(PID.TID 0000.0001) %MON dynstat_uvel_del2            =   8.4832371047858E-04
(PID.TID 0000.0001) %MON dynstat_vvel_max             =   1.2497456067461E+01
(PID.TID 0000.0001) %MON dynstat_vvel_min             =  -1.2491098954166E+01
(PID.TID 0000.0001) %MON dynstat_vvel_mean            =   1.5590268860070E-01
(PID.TID 0000.0001) %MON dynstat_vvel_sd              =   4.0529307477355E+00
(PID.TID 0000.0001) %MON dynstat_vvel_del2            =   8.4854608320646E-04
(PID.TID 0000.0001) %MON dynstat_wvel_max             =   1.1628984707758E-01
(PID.TID 0000.0001) %MON dynstat_wvel_min             =  -1.4180956870880E-01
(PID.TID 0000.0001) %MON dynstat_wvel_mean            =   3.3965080883431E-17
(PID.TID 0000.0001) %MON dynstat_wvel_sd              =   3.9492159648635E-02
(PID.TID 0000.0001) %MON dynstat_wvel_del2            =   4.3505803975254E-05
(PID.TID 0000.0001) %MON dynstat_theta_max            =   1.1543818683481E+03
(PID.TID 0000.0001) %MON dynstat_theta_min            =   2.5613636029664E+02
(PID.TID 0000.0001) %MON dynstat_theta_mean           =   3.2788941281848E+02
(PID.TID 0000.0001) %MON dynstat_theta_sd             =   9.0369988360834E+01
(PID.TID 0000.0001) %MON dynstat_theta_del2           =   5.8781543201354E-04
(PID.TID 0000.0001) %MON dynstat_salt_max             =   2.0317633217300E-02
(PID.TID 0000.0001) %MON dynstat_salt_min             =   0.0000000000000E+00
(PID.TID 0000.0001) %MON dynstat_salt_mean            =   1.8312154460836E-03
(PID.TID 0000.0001) %MON dynstat_salt_sd              =   3.8250543656751E-03
(PID.TID 0000.0001) %MON dynstat_salt_del2            =   4.9556444754368E-07
(PID.TID 0000.0001) %MON trAdv_CFL_u_max              =   3.0349117268465E-02
(PID.TID 0000.0001) %MON trAdv_CFL_v_max              =   3.0342372244605E-02
(PID.TID 0000.0001) %MON trAdv_CFL_w_max              =   6.5346063489731E-03
(PID.TID 0000.0001) %MON advcfl_uvel_max              =   3.6293752753411E-02
(PID.TID 0000.0001) %MON advcfl_vvel_max              =   3.6280772190214E-02
(PID.TID 0000.0001) %MON advcfl_wvel_max              =   5.9504799110964E-03
(PID.TID 0000.0001) %MON advcfl_W_hf_max              =   6.5346063489731E-03
(PID.TID 0000.0001) %MON am_eta_mean                  =  -2.7275357890869E+10
(PID.TID 0000.0001) %MON am_uZo_mean                  =   2.7262284875999E+10
(PID.TID 0000.0001) %MON am_tot_mean                  =  -1.3073014869411E+07
(PID.TID 0000.0001) %MON pe_b_mean                    =   5.8925845205603E-01
(PID.TID 0000.0001) %MON ke_max                       =   7.9829727010019E+01
(PID.TID 0000.0001) %MON ke_mean                      =   1.6450356360071E+01
(PID.TID 0000.0001) %MON ke_vol                       =   5.0986421042784E+19
(PID.TID 0000.0001) %MON vort_r_min                   =  -1.8982189051765E-06
(PID.TID 0000.0001) %MON vort_r_max                   =   1.8993716931876E-06
(PID.TID 0000.0001) %MON vort_a_mean                  =   8.8248786256265E-20
(PID.TID 0000.0001) %MON vort_a_sd                    =   8.4330336882718E-05
(PID.TID 0000.0001) %MON vort_p_mean                  =   8.8248769839652E-20
(PID.TID 0000.0001) %MON vort_p_sd                    =   8.4215777891989E-05
(PID.TID 0000.0001) %MON surfExpan_theta_mean         =  -2.6119285131092E+00
(PID.TID 0000.0001) %MON surfExpan_salt_mean          =  -2.4320769333316E-04
(PID.TID 0000.0001) %MON surfExpan_Heat_mean          =  -2.2953072153588E+02
(PID.TID 0000.0001) %MON En_Budget_T2PE_mean          =   2.7412372333517E+01
(PID.TID 0000.0001) // =======================================================
(PID.TID 0000.0001) // End MONITOR dynamic field statistics
(PID.TID 0000.0001) // =======================================================
 cg2d: Sum(rhs),rhsMax =  -2.79396772384644E-09  6.21472928130473E+03
(PID.TID 0000.0001)      cg2d_init_res =   3.80061842067391E+04
(PID.TID 0000.0001)      cg2d_iters(min,last) =      -1      13
(PID.TID 0000.0001)      cg2d_last_res =   6.79300393538464E-11
(PID.TID 0000.0001) // =======================================================
(PID.TID 0000.0001) // Begin MONITOR dynamic field statistics
(PID.TID 0000.0001) // =======================================================
(PID.TID 0000.0001) %MON time_tsnumber                =                    11
(PID.TID 0000.0001) %MON time_secondsf                =   3.9600000000000E+03
(PID.TID 0000.0001) %MON dynstat_eta_max              =   7.7467334846904E+02
(PID.TID 0000.0001) %MON dynstat_eta_min              =  -5.5769460745305E+02
(PID.TID 0000.0001) %MON dynstat_eta_mean             =   1.9280427609835E-13
(PID.TID 0000.0001) %MON dynstat_eta_sd               =   4.4477836763012E+02
(PID.TID 0000.0001) %MON dynstat_eta_del2             =   3.2401049738031E-01
(PID.TID 0000.0001) %MON dynstat_uvel_max             =   1.3666917202387E+01
(PID.TID 0000.0001) %MON dynstat_uvel_min             =  -1.3675889868578E+01
(PID.TID 0000.0001) %MON dynstat_uvel_mean            =   1.8584204179461E-01
(PID.TID 0000.0001) %MON dynstat_uvel_sd              =   4.4265844256608E+00
(PID.TID 0000.0001) %MON dynstat_uvel_del2            =   9.1928350953902E-04
(PID.TID 0000.0001) %MON dynstat_vvel_max             =   1.3675490680782E+01
(PID.TID 0000.0001) %MON dynstat_vvel_min             =  -1.3667993088625E+01
(PID.TID 0000.0001) %MON dynstat_vvel_mean            =   1.8742206752078E-01
(PID.TID 0000.0001) %MON dynstat_vvel_sd              =   4.4265802853997E+00
(PID.TID 0000.0001) %MON dynstat_vvel_del2            =   9.1954708213279E-04
(PID.TID 0000.0001) %MON dynstat_wvel_max             =   1.2618411903670E-01
(PID.TID 0000.0001) %MON dynstat_wvel_min             =  -1.5634845936021E-01
(PID.TID 0000.0001) %MON dynstat_wvel_mean            =  -2.3901353214266E-17
(PID.TID 0000.0001) %MON dynstat_wvel_sd              =   4.3134313753368E-02
(PID.TID 0000.0001) %MON dynstat_wvel_del2            =   4.6760192842877E-05
(PID.TID 0000.0001) %MON dynstat_theta_max            =   1.1545452280543E+03
(PID.TID 0000.0001) %MON dynstat_theta_min            =   2.5624481143614E+02
(PID.TID 0000.0001) %MON dynstat_theta_mean           =   3.2789058201342E+02
(PID.TID 0000.0001) %MON dynstat_theta_sd             =   9.0370134753911E+01
(PID.TID 0000.0001) %MON dynstat_theta_del2           =   5.9161890816164E-04
(PID.TID 0000.0001) %MON dynstat_salt_max             =   2.0317883103081E-02
(PID.TID 0000.0001) %MON dynstat_salt_min             =   0.0000000000000E+00
(PID.TID 0000.0001) %MON dynstat_salt_mean            =   1.8344768161385E-03
(PID.TID 0000.0001) %MON dynstat_salt_sd              =   3.8278340732487E-03
(PID.TID 0000.0001) %MON dynstat_salt_del2            =   5.3240844113859E-07
(PID.TID 0000.0001) %MON trAdv_CFL_u_max              =   3.3674193703171E-02
(PID.TID 0000.0001) %MON trAdv_CFL_v_max              =   3.3665376993224E-02
(PID.TID 0000.0001) %MON trAdv_CFL_w_max              =   6.8400518768041E-03
(PID.TID 0000.0001) %MON advcfl_uvel_max              =   3.9897906822471E-02
(PID.TID 0000.0001) %MON advcfl_vvel_max              =   3.9884263109891E-02
(PID.TID 0000.0001) %MON advcfl_wvel_max              =   6.2325683817245E-03
(PID.TID 0000.0001) %MON advcfl_W_hf_max              =   6.8400518768041E-03
(PID.TID 0000.0001) %MON am_eta_mean                  =  -3.3143974721711E+10
(PID.TID 0000.0001) %MON am_uZo_mean                  =   3.3125124703418E+10
(PID.TID 0000.0001) %MON am_tot_mean                  =  -1.8850018293125E+07
(PID.TID 0000.0001) %MON pe_b_mean                    =   8.3785515958963E-01
(PID.TID 0000.0001) %MON ke_max                       =   9.5598108553922E+01
(PID.TID 0000.0001) %MON ke_mean                      =   1.9629463498251E+01
(PID.TID 0000.0001) %MON ke_vol                       =   5.0986421042785E+19
(PID.TID 0000.0001) %MON vort_r_min                   =  -2.2483181704948E-06
(PID.TID 0000.0001) %MON vort_r_max                   =   2.2494863513604E-06
(PID.TID 0000.0001) %MON vort_a_mean                  =  -1.2011640351547E-19
(PID.TID 0000.0001) %MON vort_a_sd                    =   8.4356507048353E-05
(PID.TID 0000.0001) %MON vort_p_mean                  =  -1.2011637664403E-19
(PID.TID 0000.0001) %MON vort_p_sd                    =   8.4217200224002E-05
(PID.TID 0000.0001) %MON surfExpan_theta_mean         =  -2.8330612068899E+00
(PID.TID 0000.0001) %MON surfExpan_salt_mean          =  -2.6429438050949E-04
(PID.TID 0000.0001) %MON surfExpan_Heat_mean          =  -2.4907588115985E+02
(PID.TID 0000.0001) %MON En_Budget_T2PE_mean          =   2.9912432963882E+01
(PID.TID 0000.0001) // =======================================================
(PID.TID 0000.0001) // End MONITOR dynamic field statistics
(PID.TID 0000.0001) // =======================================================
 cg2d: Sum(rhs),rhsMax =   6.05359673500061E-09  7.26386226291409E+03
(PID.TID 0000.0001)      cg2d_init_res =   4.09310458576435E+04
(PID.TID 0000.0001)      cg2d_iters(min,last) =      -1      13
(PID.TID 0000.0001)      cg2d_last_res =   7.86866239204429E-11
(PID.TID 0000.0001) // =======================================================
(PID.TID 0000.0001) // Begin MONITOR dynamic field statistics
(PID.TID 0000.0001) // =======================================================
(PID.TID 0000.0001) %MON time_tsnumber                =                    12
(PID.TID 0000.0001) %MON time_secondsf                =   4.3200000000000E+03
(PID.TID 0000.0001) %MON dynstat_eta_max              =   9.0549225245945E+02
(PID.TID 0000.0001) %MON dynstat_eta_min              =  -6.5469591945252E+02
(PID.TID 0000.0001) %MON dynstat_eta_mean             =   6.4268092032785E-14
(PID.TID 0000.0001) %MON dynstat_eta_sd               =   5.2208623691906E+02
(PID.TID 0000.0001) %MON dynstat_eta_del2             =   3.5018919941718E-01
(PID.TID 0000.0001) %MON dynstat_uvel_max             =   1.4836276487130E+01
(PID.TID 0000.0001) %MON dynstat_uvel_min             =  -1.4846676567724E+01
(PID.TID 0000.0001) %MON dynstat_uvel_mean            =   2.1954996275582E-01
(PID.TID 0000.0001) %MON dynstat_uvel_sd              =   4.7921924057173E+00
(PID.TID 0000.0001) %MON dynstat_uvel_del2            =   9.8813957843503E-04
(PID.TID 0000.0001) %MON dynstat_vvel_max             =   1.4846620438567E+01
(PID.TID 0000.0001) %MON dynstat_vvel_min             =  -1.4837497992956E+01
(PID.TID 0000.0001) %MON dynstat_vvel_mean            =   2.2144076391264E-01
(PID.TID 0000.0001) %MON dynstat_vvel_sd              =   4.7921830346749E+00
(PID.TID 0000.0001) %MON dynstat_vvel_del2            =   9.8844521142889E-04
(PID.TID 0000.0001) %MON dynstat_wvel_max             =   1.3620010411485E-01
(PID.TID 0000.0001) %MON dynstat_wvel_min             =  -1.7044845553551E-01
(PID.TID 0000.0001) %MON dynstat_wvel_mean            =   1.5976167674799E-16
(PID.TID 0000.0001) %MON dynstat_wvel_sd              =   4.6717536797056E-02
(PID.TID 0000.0001) %MON dynstat_wvel_del2            =   4.9998194727019E-05
(PID.TID 0000.0001) %MON dynstat_theta_max            =   1.1547111735632E+03
(PID.TID 0000.0001) %MON dynstat_theta_min            =   2.5635148317487E+02
(PID.TID 0000.0001) %MON dynstat_theta_mean           =   3.2789156711807E+02
(PID.TID 0000.0001) %MON dynstat_theta_sd             =   9.0370456793541E+01
(PID.TID 0000.0001) %MON dynstat_theta_del2           =   5.9570211942138E-04
(PID.TID 0000.0001) %MON dynstat_salt_max             =   2.0318133706286E-02
(PID.TID 0000.0001) %MON dynstat_salt_min             =   0.0000000000000E+00
(PID.TID 0000.0001) %MON dynstat_salt_mean            =   1.8377242665827E-03
(PID.TID 0000.0001) %MON dynstat_salt_sd              =   3.8306476341587E-03
(PID.TID 0000.0001) %MON dynstat_salt_del2            =   5.6881385751373E-07
(PID.TID 0000.0001) %MON trAdv_CFL_u_max              =   3.7024273177492E-02
(PID.TID 0000.0001) %MON trAdv_CFL_v_max              =   3.7013013041040E-02
(PID.TID 0000.0001) %MON trAdv_CFL_w_max              =   7.1488669063644E-03
(PID.TID 0000.0001) %MON advcfl_uvel_max              =   4.3496653034959E-02
(PID.TID 0000.0001) %MON advcfl_vvel_max              =   4.3481726434221E-02
(PID.TID 0000.0001) %MON advcfl_wvel_max              =   6.5697477508332E-03
(PID.TID 0000.0001) %MON advcfl_W_hf_max              =   7.1488669063644E-03
(PID.TID 0000.0001) %MON am_eta_mean                  =  -3.9523791104364E+10
(PID.TID 0000.0001) %MON am_uZo_mean                  =   3.9497877886095E+10
(PID.TID 0000.0001) %MON am_tot_mean                  =  -2.5913218269180E+07
(PID.TID 0000.0001) %MON pe_b_mean                    =   1.1544260666100E+00
(PID.TID 0000.0001) %MON ke_max                       =   1.1250919478543E+02
(PID.TID 0000.0001) %MON ke_mean                      =   2.3013682244669E+01
(PID.TID 0000.0001) %MON ke_vol                       =   5.0986421042785E+19
(PID.TID 0000.0001) %MON vort_r_min                   =  -2.6213290536217E-06
(PID.TID 0000.0001) %MON vort_r_max                   =   2.6224423363133E-06
(PID.TID 0000.0001) %MON vort_a_mean                  =   3.9221682780562E-20
(PID.TID 0000.0001) %MON vort_a_sd                    =   8.4384856008208E-05
(PID.TID 0000.0001) %MON vort_p_mean                  =   3.9221672402956E-20
(PID.TID 0000.0001) %MON vort_p_sd                    =   8.4218607326444E-05
(PID.TID 0000.0001) %MON surfExpan_theta_mean         =  -3.0440700226673E+00
(PID.TID 0000.0001) %MON surfExpan_salt_mean          =  -2.8456140257693E-04
(PID.TID 0000.0001) %MON surfExpan_Heat_mean          =  -2.6775883842933E+02
(PID.TID 0000.0001) %MON En_Budget_T2PE_mean          =   3.2352254699907E+01
(PID.TID 0000.0001) // =======================================================
(PID.TID 0000.0001) // End MONITOR dynamic field statistics
(PID.TID 0000.0001) // =======================================================
 cg2d: Sum(rhs),rhsMax =  -3.72529029846191E-09  8.37622608434802E+03
(PID.TID 0000.0001)      cg2d_init_res =   4.37282586003698E+04
(PID.TID 0000.0001)      cg2d_iters(min,last) =      -1      13
(PID.TID 0000.0001)      cg2d_last_res =   8.84588704148018E-11
(PID.TID 0000.0001) // =======================================================
(PID.TID 0000.0001) // Begin MONITOR dynamic field statistics
(PID.TID 0000.0001) // =======================================================
(PID.TID 0000.0001) %MON time_tsnumber                =                    13
(PID.TID 0000.0001) %MON time_secondsf                =   4.6800000000000E+03
(PID.TID 0000.0001) %MON dynstat_eta_max              =   1.0442184850709E+03
(PID.TID 0000.0001) %MON dynstat_eta_min              =  -7.5834482895793E+02
(PID.TID 0000.0001) %MON dynstat_eta_mean             =   0.0000000000000E+00
(PID.TID 0000.0001) %MON dynstat_eta_sd               =   6.0468435994806E+02
(PID.TID 0000.0001) %MON dynstat_eta_del2             =   3.7690056675938E-01
(PID.TID 0000.0001) %MON dynstat_uvel_max             =   1.5983512777313E+01
(PID.TID 0000.0001) %MON dynstat_uvel_min             =  -1.5995528322375E+01
(PID.TID 0000.0001) %MON dynstat_uvel_mean            =   2.5561450491768E-01
(PID.TID 0000.0001) %MON dynstat_uvel_sd              =   5.1492778872039E+00
(PID.TID 0000.0001) %MON dynstat_uvel_del2            =   1.0546931028935E-03
(PID.TID 0000.0001) %MON dynstat_vvel_max             =   1.5995780538223E+01
(PID.TID 0000.0001) %MON dynstat_vvel_min             =  -1.5984845696474E+01
(PID.TID 0000.0001) %MON dynstat_vvel_mean            =   2.5784235852873E-01
(PID.TID 0000.0001) %MON dynstat_vvel_sd              =   5.1492606850699E+00
(PID.TID 0000.0001) %MON dynstat_vvel_del2            =   1.0550343928275E-03
(PID.TID 0000.0001) %MON dynstat_wvel_max             =   1.4673120832684E-01
(PID.TID 0000.0001) %MON dynstat_wvel_min             =  -1.8403217016139E-01
(PID.TID 0000.0001) %MON dynstat_wvel_mean            =  -3.2707114924785E-17
(PID.TID 0000.0001) %MON dynstat_wvel_sd              =   5.0238735734169E-02
(PID.TID 0000.0001) %MON dynstat_wvel_del2            =   5.3213784020151E-05
(PID.TID 0000.0001) %MON dynstat_theta_max            =   1.1548785325245E+03
(PID.TID 0000.0001) %MON dynstat_theta_min            =   2.5645627448841E+02
(PID.TID 0000.0001) %MON dynstat_theta_mean           =   3.2789236808215E+02
(PID.TID 0000.0001) %MON dynstat_theta_sd             =   9.0370955175763E+01
(PID.TID 0000.0001) %MON dynstat_theta_del2           =   6.0097848013306E-04
(PID.TID 0000.0001) %MON dynstat_salt_max             =   2.0318385074100E-02
(PID.TID 0000.0001) %MON dynstat_salt_min             =   0.0000000000000E+00
(PID.TID 0000.0001) %MON dynstat_salt_mean            =   1.8409560488951E-03
(PID.TID 0000.0001) %MON dynstat_salt_sd              =   3.8334848195020E-03
(PID.TID 0000.0001) %MON dynstat_salt_del2            =   6.0308336308185E-07
(PID.TID 0000.0001) %MON trAdv_CFL_u_max              =   4.0392412590768E-02
(PID.TID 0000.0001) %MON trAdv_CFL_v_max              =   4.0378307943611E-02
(PID.TID 0000.0001) %MON trAdv_CFL_w_max              =   7.4316071813085E-03
(PID.TID 0000.0001) %MON advcfl_uvel_max              =   4.7062527127188E-02
(PID.TID 0000.0001) %MON advcfl_vvel_max              =   4.7047013254375E-02
(PID.TID 0000.0001) %MON advcfl_wvel_max              =   7.0933170511883E-03
(PID.TID 0000.0001) %MON advcfl_W_hf_max              =   7.5219340515986E-03
(PID.TID 0000.0001) %MON am_eta_mean                  =  -4.6394911940585E+10
(PID.TID 0000.0001) %MON am_uZo_mean                  =   4.6360572348466E+10
(PID.TID 0000.0001) %MON am_tot_mean                  =  -3.4339592119308E+07
(PID.TID 0000.0001) %MON pe_b_mean                    =   1.5485994718289E+00
(PID.TID 0000.0001) %MON ke_max                       =   1.3047621650931E+02
(PID.TID 0000.0001) %MON ke_mean                      =   2.6580884909737E+01
(PID.TID 0000.0001) %MON ke_vol                       =   5.0986421042785E+19
(PID.TID 0000.0001) %MON vort_r_min                   =  -3.0157519120283E-06
(PID.TID 0000.0001) %MON vort_r_max                   =   3.0167417492311E-06
(PID.TID 0000.0001) %MON vort_a_mean                  =  -2.6964906911637E-20
(PID.TID 0000.0001) %MON vort_a_sd                    =   8.4415311074082E-05
(PID.TID 0000.0001) %MON vort_p_mean                  =  -2.6964898585462E-20
(PID.TID 0000.0001) %MON vort_p_sd                    =   8.4220001556999E-05
(PID.TID 0000.0001) %MON surfExpan_theta_mean         =  -3.2443634437991E+00
(PID.TID 0000.0001) %MON surfExpan_salt_mean          =  -3.0395883920933E-04
(PID.TID 0000.0001) %MON surfExpan_Heat_mean          =  -2.8552794317306E+02
(PID.TID 0000.0001) %MON En_Budget_T2PE_mean          =   3.4728376484479E+01
(PID.TID 0000.0001) // =======================================================
(PID.TID 0000.0001) // End MONITOR dynamic field statistics
(PID.TID 0000.0001) // =======================================================
 cg2d: Sum(rhs),rhsMax =  -2.79396772384644E-09  9.54730449166369E+03
(PID.TID 0000.0001)      cg2d_init_res =   4.63906097468349E+04
(PID.TID 0000.0001)      cg2d_iters(min,last) =      -1      13
(PID.TID 0000.0001)      cg2d_last_res =   9.70905594322813E-11
(PID.TID 0000.0001) // =======================================================
(PID.TID 0000.0001) // Begin MONITOR dynamic field statistics
(PID.TID 0000.0001) // =======================================================
(PID.TID 0000.0001) %MON time_tsnumber                =                    14
(PID.TID 0000.0001) %MON time_secondsf                =   5.0400000000000E+03
(PID.TID 0000.0001) %MON dynstat_eta_max              =   1.1902984539493E+03
(PID.TID 0000.0001) %MON dynstat_eta_min              =  -8.6832119459021E+02
(PID.TID 0000.0001) %MON dynstat_eta_mean             =   1.2853618406557E-13
(PID.TID 0000.0001) %MON dynstat_eta_sd               =   6.9231642379806E+02
(PID.TID 0000.0001) %MON dynstat_eta_del2             =   4.0368599427282E-01
(PID.TID 0000.0001) %MON dynstat_uvel_max             =   1.7115026602345E+01
(PID.TID 0000.0001) %MON dynstat_uvel_min             =  -1.7129196135213E+01
(PID.TID 0000.0001) %MON dynstat_uvel_mean            =   2.9391326377811E-01
(PID.TID 0000.0001) %MON dynstat_uvel_sd              =   5.4973968326473E+00
(PID.TID 0000.0001) %MON dynstat_uvel_del2            =   1.1187929471781E-03
(PID.TID 0000.0001) %MON dynstat_vvel_max             =   1.7128466741455E+01
(PID.TID 0000.0001) %MON dynstat_vvel_min             =  -1.7116127124038E+01
(PID.TID 0000.0001) %MON dynstat_vvel_mean            =   2.9650379742602E-01
(PID.TID 0000.0001) %MON dynstat_vvel_sd              =   5.4973683872732E+00
(PID.TID 0000.0001) %MON dynstat_vvel_del2            =   1.1191707050901E-03
(PID.TID 0000.0001) %MON dynstat_wvel_max             =   1.5681082196877E-01
(PID.TID 0000.0001) %MON dynstat_wvel_min             =  -1.9700935070967E-01
(PID.TID 0000.0001) %MON dynstat_wvel_mean            =  -2.2014404276298E-16
(PID.TID 0000.0001) %MON dynstat_wvel_sd              =   5.3694449796022E-02
(PID.TID 0000.0001) %MON dynstat_wvel_del2            =   5.6398660536642E-05
(PID.TID 0000.0001) %MON dynstat_theta_max            =   1.1550542950407E+03
(PID.TID 0000.0001) %MON dynstat_theta_min            =   2.5655910390738E+02
(PID.TID 0000.0001) %MON dynstat_theta_mean           =   3.2789298469949E+02
(PID.TID 0000.0001) %MON dynstat_theta_sd             =   9.0371629968673E+01
(PID.TID 0000.0001) %MON dynstat_theta_del2           =   6.0792742193828E-04
(PID.TID 0000.0001) %MON dynstat_salt_max             =   2.0318637253358E-02
(PID.TID 0000.0001) %MON dynstat_salt_min             =   0.0000000000000E+00
(PID.TID 0000.0001) %MON dynstat_salt_mean            =   1.8441725043459E-03
(PID.TID 0000.0001) %MON dynstat_salt_sd              =   3.8363557673885E-03
(PID.TID 0000.0001) %MON dynstat_salt_del2            =   6.3631500974722E-07
(PID.TID 0000.0001) %MON trAdv_CFL_u_max              =   4.3771627159426E-02
(PID.TID 0000.0001) %MON trAdv_CFL_v_max              =   4.3755912203863E-02
(PID.TID 0000.0001) %MON trAdv_CFL_w_max              =   7.7308700379828E-03
(PID.TID 0000.0001) %MON advcfl_uvel_max              =   5.0578251708307E-02
(PID.TID 0000.0001) %MON advcfl_vvel_max              =   5.0561295464258E-02
(PID.TID 0000.0001) %MON advcfl_wvel_max              =   7.5935081643983E-03
(PID.TID 0000.0001) %MON advcfl_W_hf_max              =   8.0035215315640E-03
(PID.TID 0000.0001) %MON am_eta_mean                  =  -5.3736069054963E+10
(PID.TID 0000.0001) %MON am_uZo_mean                  =   5.3691876560381E+10
(PID.TID 0000.0001) %MON am_tot_mean                  =  -4.4192494582138E+07
(PID.TID 0000.0001) %MON pe_b_mean                    =   2.0299760037662E+00
(PID.TID 0000.0001) %MON ke_max                       =   1.4940763490022E+02
(PID.TID 0000.0001) %MON ke_mean                      =   3.0308365314784E+01
(PID.TID 0000.0001) %MON ke_vol                       =   5.0986421042785E+19
(PID.TID 0000.0001) %MON vort_r_min                   =  -3.4301515489671E-06
(PID.TID 0000.0001) %MON vort_r_max                   =   3.4309551115488E-06
(PID.TID 0000.0001) %MON vort_a_mean                  =  -1.2501911386304E-19
(PID.TID 0000.0001) %MON vort_a_sd                    =   8.4447794482839E-05
(PID.TID 0000.0001) %MON vort_p_mean                  =  -1.2501906931590E-19
(PID.TID 0000.0001) %MON vort_p_sd                    =   8.4221385936630E-05
(PID.TID 0000.0001) %MON surfExpan_theta_mean         =  -3.4333915451689E+00
(PID.TID 0000.0001) %MON surfExpan_salt_mean          =  -3.2243936535383E-04
(PID.TID 0000.0001) %MON surfExpan_Heat_mean          =  -3.0233474067296E+02
(PID.TID 0000.0001) %MON En_Budget_T2PE_mean          =   3.7037569060539E+01
(PID.TID 0000.0001) // =======================================================
(PID.TID 0000.0001) // End MONITOR dynamic field statistics
(PID.TID 0000.0001) // =======================================================
 cg2d: Sum(rhs),rhsMax =   3.72529029846191E-09  1.07726652465895E+04
(PID.TID 0000.0001)      cg2d_init_res =   4.89110890363822E+04
(PID.TID 0000.0001)      cg2d_iters(min,last) =      -1      13
(PID.TID 0000.0001)      cg2d_last_res =   1.04591382733408E-10
(PID.TID 0000.0001) // =======================================================
(PID.TID 0000.0001) // Begin MONITOR dynamic field statistics
(PID.TID 0000.0001) // =======================================================
(PID.TID 0000.0001) %MON time_tsnumber                =                    15
(PID.TID 0000.0001) %MON time_secondsf                =   5.4000000000000E+03
(PID.TID 0000.0001) %MON dynstat_eta_max              =   1.3431906012035E+03
(PID.TID 0000.0001) %MON dynstat_eta_min              =  -9.8427907510578E+02
(PID.TID 0000.0001) %MON dynstat_eta_mean             =  -5.1414473626228E-13
(PID.TID 0000.0001) %MON dynstat_eta_sd               =   7.8471285248058E+02
(PID.TID 0000.0001) %MON dynstat_eta_del2             =   4.3017274792857E-01
(PID.TID 0000.0001) %MON dynstat_uvel_max             =   1.8221657730567E+01
(PID.TID 0000.0001) %MON dynstat_uvel_min             =  -1.8237459798040E+01
(PID.TID 0000.0001) %MON dynstat_uvel_mean            =   3.3431782441566E-01
(PID.TID 0000.0001) %MON dynstat_uvel_sd              =   5.8361403045470E+00
(PID.TID 0000.0001) %MON dynstat_uvel_del2            =   1.1803577522595E-03
(PID.TID 0000.0001) %MON dynstat_vvel_max             =   1.8237269943991E+01
(PID.TID 0000.0001) %MON dynstat_vvel_min             =  -1.8222758934915E+01
(PID.TID 0000.0001) %MON dynstat_vvel_mean            =   3.3729586466765E-01
(PID.TID 0000.0001) %MON dynstat_vvel_sd              =   5.8360965081572E+00
(PID.TID 0000.0001) %MON dynstat_vvel_del2            =   1.1807764207258E-03
(PID.TID 0000.0001) %MON dynstat_wvel_max             =   1.6750517759795E-01
(PID.TID 0000.0001) %MON dynstat_wvel_min             =  -2.0928116618502E-01
(PID.TID 0000.0001) %MON dynstat_wvel_mean            =   3.1449148966140E-17
(PID.TID 0000.0001) %MON dynstat_wvel_sd              =   5.7080957815038E-02
(PID.TID 0000.0001) %MON dynstat_wvel_del2            =   5.9534506482212E-05
(PID.TID 0000.0001) %MON dynstat_theta_max            =   1.1552150352702E+03
(PID.TID 0000.0001) %MON dynstat_theta_min            =   2.5665990661276E+02
(PID.TID 0000.0001) %MON dynstat_theta_mean           =   3.2789342693591E+02
(PID.TID 0000.0001) %MON dynstat_theta_sd             =   9.0372473933579E+01
(PID.TID 0000.0001) %MON dynstat_theta_del2           =   6.1626223929194E-04
(PID.TID 0000.0001) %MON dynstat_salt_max             =   2.0318890291323E-02
(PID.TID 0000.0001) %MON dynstat_salt_min             =   0.0000000000000E+00
(PID.TID 0000.0001) %MON dynstat_salt_mean            =   1.8473715431866E-03
(PID.TID 0000.0001) %MON dynstat_salt_sd              =   3.8392736491773E-03
(PID.TID 0000.0001) %MON dynstat_salt_del2            =   6.6771487037187E-07
(PID.TID 0000.0001) %MON trAdv_CFL_u_max              =   4.7154964219361E-02
(PID.TID 0000.0001) %MON trAdv_CFL_v_max              =   4.7138659668688E-02
(PID.TID 0000.0001) %MON trAdv_CFL_w_max              =   8.0847502748376E-03
(PID.TID 0000.0001) %MON advcfl_uvel_max              =   5.4034861419755E-02
(PID.TID 0000.0001) %MON advcfl_vvel_max              =   5.4015755706239E-02
(PID.TID 0000.0001) %MON advcfl_wvel_max              =   8.0665117587376E-03
(PID.TID 0000.0001) %MON advcfl_W_hf_max              =   8.4542037585053E-03
(PID.TID 0000.0001) %MON am_eta_mean                  =  -6.1524678569735E+10
(PID.TID 0000.0001) %MON am_uZo_mean                  =   6.1469156403059E+10
(PID.TID 0000.0001) %MON am_tot_mean                  =  -5.5522166676117E+07
(PID.TID 0000.0001) %MON pe_b_mean                    =   2.6079734557687E+00
(PID.TID 0000.0001) %MON ke_max                       =   1.6920812574361E+02
(PID.TID 0000.0001) %MON ke_mean                      =   3.4173046507507E+01
(PID.TID 0000.0001) %MON ke_vol                       =   5.0986421042785E+19
(PID.TID 0000.0001) %MON vort_r_min                   =  -3.8631487298659E-06
(PID.TID 0000.0001) %MON vort_r_max                   =   3.8637098563813E-06
(PID.TID 0000.0001) %MON vort_a_mean                  =  -3.4318972432992E-20
(PID.TID 0000.0001) %MON vort_a_sd                    =   8.4482223199713E-05
(PID.TID 0000.0001) %MON vort_p_mean                  =  -3.9221666810888E-20
(PID.TID 0000.0001) %MON vort_p_sd                    =   8.4222763849226E-05
(PID.TID 0000.0001) %MON surfExpan_theta_mean         =  -3.6106436429228E+00
(PID.TID 0000.0001) %MON surfExpan_salt_mean          =  -3.3995951990626E-04
(PID.TID 0000.0001) %MON surfExpan_Heat_mean          =  -3.1813378748513E+02
(PID.TID 0000.0001) %MON En_Budget_T2PE_mean          =   3.9276769837957E+01
(PID.TID 0000.0001) // =======================================================
(PID.TID 0000.0001) // End MONITOR dynamic field statistics
(PID.TID 0000.0001) // =======================================================
 cg2d: Sum(rhs),rhsMax =   6.51925802230835E-09  1.20480699616993E+04
(PID.TID 0000.0001)      cg2d_init_res =   5.12828694666132E+04
(PID.TID 0000.0001)      cg2d_iters(min,last) =      -1      13
(PID.TID 0000.0001)      cg2d_last_res =   1.11238684726790E-10
(PID.TID 0000.0001) // =======================================================
(PID.TID 0000.0001) // Begin MONITOR dynamic field statistics
(PID.TID 0000.0001) // =======================================================
(PID.TID 0000.0001) %MON time_tsnumber                =                    16
(PID.TID 0000.0001) %MON time_secondsf                =   5.7600000000000E+03
(PID.TID 0000.0001) %MON dynstat_eta_max              =   1.5023783253437E+03
(PID.TID 0000.0001) %MON dynstat_eta_min              =  -1.1058521308082E+03
(PID.TID 0000.0001) %MON dynstat_eta_mean             =   2.7849506547540E-13
(PID.TID 0000.0001) %MON dynstat_eta_sd               =   8.8159152198533E+02
(PID.TID 0000.0001) %MON dynstat_eta_del2             =   4.5610085292536E-01
(PID.TID 0000.0001) %MON dynstat_uvel_max             =   1.9300615649836E+01
(PID.TID 0000.0001) %MON dynstat_uvel_min             =  -1.9318124350721E+01
(PID.TID 0000.0001) %MON dynstat_uvel_mean            =   3.7669427274475E-01
(PID.TID 0000.0001) %MON dynstat_uvel_sd              =   6.1651360787996E+00
(PID.TID 0000.0001) %MON dynstat_uvel_del2            =   1.2393795135904E-03
(PID.TID 0000.0001) %MON dynstat_vvel_max             =   1.9318547797366E+01
(PID.TID 0000.0001) %MON dynstat_vvel_min             =  -1.9301686276338E+01
(PID.TID 0000.0001) %MON dynstat_vvel_mean            =   3.8008356416269E-01
(PID.TID 0000.0001) %MON dynstat_vvel_sd              =   6.1650720701309E+00
(PID.TID 0000.0001) %MON dynstat_vvel_del2            =   1.2398430187378E-03
(PID.TID 0000.0001) %MON dynstat_wvel_max             =   1.7803050864723E-01
(PID.TID 0000.0001) %MON dynstat_wvel_min             =  -2.2075170029200E-01
(PID.TID 0000.0001) %MON dynstat_wvel_mean            =   1.5976167674799E-16
(PID.TID 0000.0001) %MON dynstat_wvel_sd              =   6.0394281168711E-02
(PID.TID 0000.0001) %MON dynstat_wvel_del2            =   6.2596997044917E-05
(PID.TID 0000.0001) %MON dynstat_theta_max            =   1.1553564428373E+03
(PID.TID 0000.0001) %MON dynstat_theta_min            =   2.5675863189433E+02
(PID.TID 0000.0001) %MON dynstat_theta_mean           =   3.2789369563803E+02
(PID.TID 0000.0001) %MON dynstat_theta_sd             =   9.0373485078081E+01
(PID.TID 0000.0001) %MON dynstat_theta_del2           =   6.2503416314428E-04
(PID.TID 0000.0001) %MON dynstat_salt_max             =   2.0319144236734E-02
(PID.TID 0000.0001) %MON dynstat_salt_min             =   0.0000000000000E+00
(PID.TID 0000.0001) %MON dynstat_salt_mean            =   1.8505577537897E-03
(PID.TID 0000.0001) %MON dynstat_salt_sd              =   3.8422523981848E-03
(PID.TID 0000.0001) %MON dynstat_salt_del2            =   6.9666927475256E-07
(PID.TID 0000.0001) %MON trAdv_CFL_u_max              =   5.0535598109714E-02
(PID.TID 0000.0001) %MON trAdv_CFL_v_max              =   5.0518803121115E-02
(PID.TID 0000.0001) %MON trAdv_CFL_w_max              =   8.4819938509787E-03
(PID.TID 0000.0001) %MON advcfl_uvel_max              =   5.7423312431941E-02
(PID.TID 0000.0001) %MON advcfl_vvel_max              =   5.7402073385980E-02
(PID.TID 0000.0001) %MON advcfl_wvel_max              =   8.5086308463725E-03
(PID.TID 0000.0001) %MON advcfl_W_hf_max              =   8.8695239378285E-03
(PID.TID 0000.0001) %MON am_eta_mean                  =  -6.9736901844180E+10
(PID.TID 0000.0001) %MON am_uZo_mean                  =   6.9668536305199E+10
(PID.TID 0000.0001) %MON am_tot_mean                  =  -6.8365538980591E+07
(PID.TID 0000.0001) %MON pe_b_mean                    =   3.2916711817141E+00
(PID.TID 0000.0001) %MON ke_max                       =   1.8977983476092E+02
(PID.TID 0000.0001) %MON ke_mean                      =   3.8151689295501E+01
(PID.TID 0000.0001) %MON ke_vol                       =   5.0986421042785E+19
(PID.TID 0000.0001) %MON vort_r_min                   =  -4.3134046977110E-06
(PID.TID 0000.0001) %MON vort_r_max                   =   4.3136718876808E-06
(PID.TID 0000.0001) %MON vort_a_mean                  =   3.4318972432992E-20
(PID.TID 0000.0001) %MON vort_a_sd                    =   8.4518509058059E-05
(PID.TID 0000.0001) %MON vort_p_mean                  =   3.6770310650364E-20
(PID.TID 0000.0001) %MON vort_p_sd                    =   8.4224139061924E-05
(PID.TID 0000.0001) %MON surfExpan_theta_mean         =  -3.7756556989710E+00
(PID.TID 0000.0001) %MON surfExpan_salt_mean          =  -3.5647801944630E-04
(PID.TID 0000.0001) %MON surfExpan_Heat_mean          =  -3.3288332260872E+02
(PID.TID 0000.0001) %MON En_Budget_T2PE_mean          =   4.1443165148051E+01
(PID.TID 0000.0001) // =======================================================
(PID.TID 0000.0001) // End MONITOR dynamic field statistics
(PID.TID 0000.0001) // =======================================================
(PID.TID 0000.0001)   Exporting atmospheric surf fluxes at iter=        16
(PID.TID 0000.0001)   Importing  oceanic surface fields at iter=        16
 cg2d: Sum(rhs),rhsMax =   2.23517417907715E-08  1.33695847920218E+04
(PID.TID 0000.0001)      cg2d_init_res =   5.34993839922447E+04
(PID.TID 0000.0001)      cg2d_iters(min,last) =      -1      13
(PID.TID 0000.0001)      cg2d_last_res =   1.17429758075687E-10
(PID.TID 0000.0001) // =======================================================
(PID.TID 0000.0001) // Begin MONITOR dynamic field statistics
(PID.TID 0000.0001) // =======================================================
(PID.TID 0000.0001) %MON time_tsnumber                =                    17
(PID.TID 0000.0001) %MON time_secondsf                =   6.1200000000000E+03
(PID.TID 0000.0001) %MON dynstat_eta_max              =   1.6673823382343E+03
(PID.TID 0000.0001) %MON dynstat_eta_min              =  -1.2326545584020E+03
(PID.TID 0000.0001) %MON dynstat_eta_mean             =  -4.2845394688523E-14
(PID.TID 0000.0001) %MON dynstat_eta_sd               =   9.8265838105408E+02
(PID.TID 0000.0001) %MON dynstat_eta_del2             =   4.8130708160037E-01
(PID.TID 0000.0001) %MON dynstat_uvel_max             =   2.0349762975881E+01
(PID.TID 0000.0001) %MON dynstat_uvel_min             =  -2.0369066369972E+01
(PID.TID 0000.0001) %MON dynstat_uvel_mean            =   4.2090369821711E-01
(PID.TID 0000.0001) %MON dynstat_uvel_sd              =   6.4840504299496E+00
(PID.TID 0000.0001) %MON dynstat_uvel_del2            =   1.2958920397802E-03
(PID.TID 0000.0001) %MON dynstat_vvel_max             =   2.0370152775532E+01
(PID.TID 0000.0001) %MON dynstat_vvel_min             =  -2.0350796438924E+01
(PID.TID 0000.0001) %MON dynstat_vvel_mean            =   4.2472674507441E-01
(PID.TID 0000.0001) %MON dynstat_vvel_sd              =   6.4839606181189E+00
(PID.TID 0000.0001) %MON dynstat_vvel_del2            =   1.2964079085212E-03
(PID.TID 0000.0001) %MON dynstat_wvel_max             =   1.8841366549484E-01
(PID.TID 0000.0001) %MON dynstat_wvel_min             =  -2.3133928180984E-01
(PID.TID 0000.0001) %MON dynstat_wvel_mean            =  -7.5477957518736E-18
(PID.TID 0000.0001) %MON dynstat_wvel_sd              =   6.3630596080621E-02
(PID.TID 0000.0001) %MON dynstat_wvel_del2            =   6.5566070425294E-05
(PID.TID 0000.0001) %MON dynstat_theta_max            =   1.1554831721942E+03
(PID.TID 0000.0001) %MON dynstat_theta_min            =   2.5685493288878E+02
(PID.TID 0000.0001) %MON dynstat_theta_mean           =   3.2789376970512E+02
(PID.TID 0000.0001) %MON dynstat_theta_sd             =   9.0374674227764E+01
(PID.TID 0000.0001) %MON dynstat_theta_del2           =   6.3301733312027E-04
(PID.TID 0000.0001) %MON dynstat_salt_max             =   2.0319399417095E-02
(PID.TID 0000.0001) %MON dynstat_salt_min             =   0.0000000000000E+00
(PID.TID 0000.0001) %MON dynstat_salt_mean            =   1.8537274892472E-03
(PID.TID 0000.0001) %MON dynstat_salt_sd              =   3.8453038902669E-03
(PID.TID 0000.0001) %MON dynstat_salt_del2            =   7.2124065895400E-07
(PID.TID 0000.0001) %MON trAdv_CFL_u_max              =   5.3907714101660E-02
(PID.TID 0000.0001) %MON trAdv_CFL_v_max              =   5.3889730339050E-02
(PID.TID 0000.0001) %MON trAdv_CFL_w_max              =   8.9655133058236E-03
(PID.TID 0000.0001) %MON advcfl_uvel_max              =   6.0767241066000E-02
(PID.TID 0000.0001) %MON advcfl_vvel_max              =   6.0743555511819E-02
(PID.TID 0000.0001) %MON advcfl_wvel_max              =   8.9167175001652E-03
(PID.TID 0000.0001) %MON advcfl_W_hf_max              =   9.2517969996142E-03
(PID.TID 0000.0001) %MON am_eta_mean                  =  -7.8347709444977E+10
(PID.TID 0000.0001) %MON am_uZo_mean                  =   7.8264964129522E+10
(PID.TID 0000.0001) %MON am_tot_mean                  =  -8.2745315454910E+07
(PID.TID 0000.0001) %MON pe_b_mean                    =   4.0896558244137E+00
(PID.TID 0000.0001) %MON ke_max                       =   2.1102516663464E+02
(PID.TID 0000.0001) %MON ke_mean                      =   4.2221104003371E+01
(PID.TID 0000.0001) %MON ke_vol                       =   5.0986421042785E+19
(PID.TID 0000.0001) %MON vort_r_min                   =  -4.7795921017132E-06
(PID.TID 0000.0001) %MON vort_r_max                   =   4.7795224407143E-06
(PID.TID 0000.0001) %MON vort_a_mean                  =   0.0000000000000E+00
(PID.TID 0000.0001) %MON vort_a_sd                    =   8.4556558882916E-05
(PID.TID 0000.0001) %MON vort_p_mean                  =   0.0000000000000E+00
(PID.TID 0000.0001) %MON vort_p_sd                    =   8.4225515714857E-05
(PID.TID 0000.0001) %MON surfExpan_theta_mean         =  -3.9280166555191E+00
(PID.TID 0000.0001) %MON surfExpan_salt_mean          =  -3.7195674756580E-04
(PID.TID 0000.0001) %MON surfExpan_Heat_mean          =  -3.4654591687928E+02
(PID.TID 0000.0001) %MON En_Budget_T2PE_mean          =   4.3534198286197E+01
(PID.TID 0000.0001) // =======================================================
(PID.TID 0000.0001) // End MONITOR dynamic field statistics
(PID.TID 0000.0001) // =======================================================
 cg2d: Sum(rhs),rhsMax =   1.11758708953857E-08  1.47336778616883E+04
(PID.TID 0000.0001)      cg2d_init_res =   5.55544179509054E+04
(PID.TID 0000.0001)      cg2d_iters(min,last) =      -1      13
(PID.TID 0000.0001)      cg2d_last_res =   1.23485443814686E-10
(PID.TID 0000.0001) // =======================================================
(PID.TID 0000.0001) // Begin MONITOR dynamic field statistics
(PID.TID 0000.0001) // =======================================================
(PID.TID 0000.0001) %MON time_tsnumber                =                    18
(PID.TID 0000.0001) %MON time_secondsf                =   6.4800000000000E+03
(PID.TID 0000.0001) %MON dynstat_eta_max              =   1.8377708482394E+03
(PID.TID 0000.0001) %MON dynstat_eta_min              =  -1.3642711375765E+03
(PID.TID 0000.0001) %MON dynstat_eta_mean             =   4.2845394688523E-13
(PID.TID 0000.0001) %MON dynstat_eta_sd               =   1.0876081084482E+03
(PID.TID 0000.0001) %MON dynstat_eta_del2             =   5.0570916969912E-01
(PID.TID 0000.0001) %MON dynstat_uvel_max             =   2.1367072263493E+01
(PID.TID 0000.0001) %MON dynstat_uvel_min             =  -2.1388263048040E+01
(PID.TID 0000.0001) %MON dynstat_uvel_mean            =   4.6680273725138E-01
(PID.TID 0000.0001) %MON dynstat_uvel_sd              =   6.7925903785623E+00
(PID.TID 0000.0001) %MON dynstat_uvel_del2            =   1.3499628683228E-03
(PID.TID 0000.0001) %MON dynstat_vvel_max             =   2.1390033947619E+01
(PID.TID 0000.0001) %MON dynstat_vvel_min             =  -2.1368068947232E+01
(PID.TID 0000.0001) %MON dynstat_vvel_mean            =   4.7108070577430E-01
(PID.TID 0000.0001) %MON dynstat_vvel_sd              =   6.7924688377927E+00
(PID.TID 0000.0001) %MON dynstat_vvel_del2            =   1.3505324748456E-03
(PID.TID 0000.0001) %MON dynstat_wvel_max             =   1.9827739399240E-01
(PID.TID 0000.0001) %MON dynstat_wvel_min             =  -2.4098223116793E-01
(PID.TID 0000.0001) %MON dynstat_wvel_mean            =  -8.8057617105191E-17
(PID.TID 0000.0001) %MON dynstat_wvel_sd              =   6.6785982656935E-02
(PID.TID 0000.0001) %MON dynstat_wvel_del2            =   6.8424246017522E-05
(PID.TID 0000.0001) %MON dynstat_theta_max            =   1.1555910096026E+03
(PID.TID 0000.0001) %MON dynstat_theta_min            =   2.5694900971387E+02
(PID.TID 0000.0001) %MON dynstat_theta_mean           =   3.2789365197047E+02
(PID.TID 0000.0001) %MON dynstat_theta_sd             =   9.0376036904563E+01
(PID.TID 0000.0001) %MON dynstat_theta_del2           =   6.3913735626249E-04
(PID.TID 0000.0001) %MON dynstat_salt_max             =   2.0319655613170E-02
(PID.TID 0000.0001) %MON dynstat_salt_min             =   0.0000000000000E+00
(PID.TID 0000.0001) %MON dynstat_salt_mean            =   1.8568989380863E-03
(PID.TID 0000.0001) %MON dynstat_salt_sd              =   3.8484463342724E-03
(PID.TID 0000.0001) %MON dynstat_salt_del2            =   7.4318797105982E-07
(PID.TID 0000.0001) %MON trAdv_CFL_u_max              =   5.7264413081137E-02
(PID.TID 0000.0001) %MON trAdv_CFL_v_max              =   5.7245147256258E-02
(PID.TID 0000.0001) %MON trAdv_CFL_w_max              =   9.4224276196526E-03
(PID.TID 0000.0001) %MON advcfl_uvel_max              =   6.4065614126195E-02
(PID.TID 0000.0001) %MON advcfl_vvel_max              =   6.4040224211391E-02
(PID.TID 0000.0001) %MON advcfl_wvel_max              =   9.2883943490852E-03
(PID.TID 0000.0001) %MON advcfl_W_hf_max              =   9.6110367095446E-03
(PID.TID 0000.0001) %MON am_eta_mean                  =  -8.7330949082173E+10
(PID.TID 0000.0001) %MON am_uZo_mean                  =   8.7232272163676E+10
(PID.TID 0000.0001) %MON am_tot_mean                  =  -9.8676918496597E+07
(PID.TID 0000.0001) %MON pe_b_mean                    =   5.0098706003884E+00
(PID.TID 0000.0001) %MON ke_max                       =   2.3285421586520E+02
(PID.TID 0000.0001) %MON ke_mean                      =   4.6358369395173E+01
(PID.TID 0000.0001) %MON ke_vol                       =   5.0986421042785E+19
(PID.TID 0000.0001) %MON vort_r_min                   =  -5.2603842537446E-06
(PID.TID 0000.0001) %MON vort_r_max                   =   5.2599380056912E-06
(PID.TID 0000.0001) %MON vort_a_mean                  =  -3.4318972432992E-20
(PID.TID 0000.0001) %MON vort_a_sd                    =   8.4596274657766E-05
(PID.TID 0000.0001) %MON vort_p_mean                  =  -3.4318952614395E-20
(PID.TID 0000.0001) %MON vort_p_sd                    =   8.4226898337268E-05
(PID.TID 0000.0001) %MON surfExpan_theta_mean         =  -4.0673546260339E+00
(PID.TID 0000.0001) %MON surfExpan_salt_mean          =  -3.8635583726108E-04
(PID.TID 0000.0001) %MON surfExpan_Heat_mean          =  -3.5908707049651E+02
(PID.TID 0000.0001) %MON En_Budget_T2PE_mean          =   4.5547497230519E+01
(PID.TID 0000.0001) // =======================================================
(PID.TID 0000.0001) // End MONITOR dynamic field statistics
(PID.TID 0000.0001) // =======================================================
 cg2d: Sum(rhs),rhsMax =   5.58793544769287E-09  1.61372708820247E+04
(PID.TID 0000.0001)      cg2d_init_res =   5.74422156616103E+04
(PID.TID 0000.0001)      cg2d_iters(min,last) =      -1      13
(PID.TID 0000.0001)      cg2d_last_res =   1.29635820986763E-10
(PID.TID 0000.0001) // =======================================================
(PID.TID 0000.0001) // Begin MONITOR dynamic field statistics
(PID.TID 0000.0001) // =======================================================
(PID.TID 0000.0001) %MON time_tsnumber                =                    19
(PID.TID 0000.0001) %MON time_secondsf                =   6.8400000000000E+03
(PID.TID 0000.0001) %MON dynstat_eta_max              =   2.0131637691158E+03
(PID.TID 0000.0001) %MON dynstat_eta_min              =  -1.5002727271397E+03
(PID.TID 0000.0001) %MON dynstat_eta_mean             =  -1.2853618406557E-13
(PID.TID 0000.0001) %MON dynstat_eta_sd               =   1.1961248505522E+03
(PID.TID 0000.0001) %MON dynstat_eta_del2             =   5.2928342877451E-01
(PID.TID 0000.0001) %MON dynstat_uvel_max             =   2.2350650124581E+01
(PID.TID 0000.0001) %MON dynstat_uvel_min             =  -2.2373817684273E+01
(PID.TID 0000.0001) %MON dynstat_uvel_mean            =   5.1424382538630E-01
(PID.TID 0000.0001) %MON dynstat_uvel_sd              =   7.0905032229680E+00
(PID.TID 0000.0001) %MON dynstat_uvel_del2            =   1.4016313862614E-03
(PID.TID 0000.0001) %MON dynstat_vvel_max             =   2.2376264500470E+01
(PID.TID 0000.0001) %MON dynstat_vvel_min             =  -2.2351613964265E+01
(PID.TID 0000.0001) %MON dynstat_vvel_mean            =   5.1899662921316E-01
(PID.TID 0000.0001) %MON dynstat_vvel_sd              =   7.0903435041398E+00
(PID.TID 0000.0001) %MON dynstat_vvel_del2            =   1.4022528498769E-03
(PID.TID 0000.0001) %MON dynstat_wvel_max             =   2.0925533300550E-01
(PID.TID 0000.0001) %MON dynstat_wvel_min             =  -2.4964072090784E-01
(PID.TID 0000.0001) %MON dynstat_wvel_mean            =  -2.7675251090203E-17
(PID.TID 0000.0001) %MON dynstat_wvel_sd              =   6.9856990436240E-02
(PID.TID 0000.0001) %MON dynstat_wvel_del2            =   7.1155771099561E-05
(PID.TID 0000.0001) %MON dynstat_theta_max            =   1.1556760567237E+03
(PID.TID 0000.0001) %MON dynstat_theta_min            =   2.5704089960765E+02
(PID.TID 0000.0001) %MON dynstat_theta_mean           =   3.2789334681729E+02
(PID.TID 0000.0001) %MON dynstat_theta_sd             =   9.0377566692882E+01
(PID.TID 0000.0001) %MON dynstat_theta_del2           =   6.4270289899586E-04
(PID.TID 0000.0001) %MON dynstat_salt_max             =   2.0319912887774E-02
(PID.TID 0000.0001) %MON dynstat_salt_min             =   0.0000000000000E+00
(PID.TID 0000.0001) %MON dynstat_salt_mean            =   1.8600775608232E-03
(PID.TID 0000.0001) %MON dynstat_salt_sd              =   3.8517090656118E-03
(PID.TID 0000.0001) %MON dynstat_salt_del2            =   7.6188373302671E-07
(PID.TID 0000.0001) %MON trAdv_CFL_u_max              =   6.0599698878624E-02
(PID.TID 0000.0001) %MON trAdv_CFL_v_max              =   6.0579081988252E-02
(PID.TID 0000.0001) %MON trAdv_CFL_w_max              =   9.8511745207156E-03
(PID.TID 0000.0001) %MON advcfl_uvel_max              =   6.7283180032832E-02
(PID.TID 0000.0001) %MON advcfl_vvel_max              =   6.7256508269924E-02
(PID.TID 0000.0001) %MON advcfl_wvel_max              =   9.6221262876682E-03
(PID.TID 0000.0001) %MON advcfl_W_hf_max              =   9.9284949845709E-03
(PID.TID 0000.0001) %MON am_eta_mean                  =  -9.6659418098727E+10
(PID.TID 0000.0001) %MON am_uZo_mean                  =   9.6543258194593E+10
(PID.TID 0000.0001) %MON am_tot_mean                  =  -1.1615990413383E+08
(PID.TID 0000.0001) %MON pe_b_mean                    =   6.0594703097637E+00
(PID.TID 0000.0001) %MON ke_max                       =   2.5516007592983E+02
(PID.TID 0000.0001) %MON ke_mean                      =   5.0541005587443E+01
(PID.TID 0000.0001) %MON ke_vol                       =   5.0986421042784E+19
(PID.TID 0000.0001) %MON vort_r_min                   =  -5.7544264319936E-06
(PID.TID 0000.0001) %MON vort_r_max                   =   5.7535693657766E-06
(PID.TID 0000.0001) %MON vort_a_mean                  =  -3.9221682780562E-20
(PID.TID 0000.0001) %MON vort_a_sd                    =   8.4637552989610E-05
(PID.TID 0000.0001) %MON vort_p_mean                  =  -3.6770304102821E-20
(PID.TID 0000.0001) %MON vort_p_sd                    =   8.4228291146136E-05
(PID.TID 0000.0001) %MON surfExpan_theta_mean         =  -4.1933426122289E+00
(PID.TID 0000.0001) %MON surfExpan_salt_mean          =  -3.9964258541500E-04
(PID.TID 0000.0001) %MON surfExpan_Heat_mean          =  -3.7047591465525E+02
(PID.TID 0000.0001) %MON En_Budget_T2PE_mean          =   4.7480807719925E+01
(PID.TID 0000.0001) // =======================================================
(PID.TID 0000.0001) // End MONITOR dynamic field statistics
(PID.TID 0000.0001) // =======================================================
 cg2d: Sum(rhs),rhsMax =  -1.86264514923096E-09  1.75777396593129E+04
(PID.TID 0000.0001)      cg2d_init_res =   5.91575701588155E+04
(PID.TID 0000.0001)      cg2d_iters(min,last) =      -1      13
(PID.TID 0000.0001)      cg2d_last_res =   1.36058652442487E-10
(PID.TID 0000.0001) // =======================================================
(PID.TID 0000.0001) // Begin MONITOR dynamic field statistics
(PID.TID 0000.0001) // =======================================================
(PID.TID 0000.0001) %MON time_tsnumber                =                    20
(PID.TID 0000.0001) %MON time_secondsf                =   7.2000000000000E+03
(PID.TID 0000.0001) %MON dynstat_eta_max              =   2.1932305950748E+03
(PID.TID 0000.0001) %MON dynstat_eta_min              =  -1.6402168019756E+03
(PID.TID 0000.0001) %MON dynstat_eta_mean             =   6.8552631501637E-13
(PID.TID 0000.0001) %MON dynstat_eta_sd               =   1.3078830662263E+03
(PID.TID 0000.0001) %MON dynstat_eta_del2             =   5.5203318930047E-01
(PID.TID 0000.0001) %MON dynstat_uvel_max             =   2.3328636492972E+01
(PID.TID 0000.0001) %MON dynstat_uvel_min             =  -2.3352064076551E+01
(PID.TID 0000.0001) %MON dynstat_uvel_mean            =   5.6307578199386E-01
(PID.TID 0000.0001) %MON dynstat_uvel_sd              =   7.3775788478999E+00
(PID.TID 0000.0001) %MON dynstat_uvel_del2            =   1.4508733819556E-03
(PID.TID 0000.0001) %MON dynstat_vvel_max             =   2.3353863105047E+01
(PID.TID 0000.0001) %MON dynstat_vvel_min             =  -2.3329160837622E+01
(PID.TID 0000.0001) %MON dynstat_vvel_mean            =   5.6832203828979E-01
(PID.TID 0000.0001) %MON dynstat_vvel_sd              =   7.3773738796258E+00
(PID.TID 0000.0001) %MON dynstat_vvel_del2            =   1.4515498356829E-03
(PID.TID 0000.0001) %MON dynstat_wvel_max             =   2.2023399669358E-01
(PID.TID 0000.0001) %MON dynstat_wvel_min             =  -2.5729255747348E-01
(PID.TID 0000.0001) %MON dynstat_wvel_mean            =   2.0127455338329E-16
(PID.TID 0000.0001) %MON dynstat_wvel_sd              =   7.2840341099765E-02
(PID.TID 0000.0001) %MON dynstat_wvel_del2            =   7.3748314786476E-05
(PID.TID 0000.0001) %MON dynstat_theta_max            =   1.1557624831174E+03
(PID.TID 0000.0001) %MON dynstat_theta_min            =   2.5713059859128E+02
(PID.TID 0000.0001) %MON dynstat_theta_mean           =   3.2789284996673E+02
(PID.TID 0000.0001) %MON dynstat_theta_sd             =   9.0379262266587E+01
(PID.TID 0000.0001) %MON dynstat_theta_del2           =   6.4373547609754E-04
(PID.TID 0000.0001) %MON dynstat_salt_max             =   2.0320171312656E-02
(PID.TID 0000.0001) %MON dynstat_salt_min             =   0.0000000000000E+00
(PID.TID 0000.0001) %MON dynstat_salt_mean            =   1.8632720559300E-03
(PID.TID 0000.0001) %MON dynstat_salt_sd              =   3.8551012085652E-03
(PID.TID 0000.0001) %MON dynstat_salt_del2            =   7.7681261569365E-07
(PID.TID 0000.0001) %MON trAdv_CFL_u_max              =   6.3907782541203E-02
(PID.TID 0000.0001) %MON trAdv_CFL_v_max              =   6.3885841070250E-02
(PID.TID 0000.0001) %MON trAdv_CFL_w_max              =   1.0250679585394E-02
(PID.TID 0000.0001) %MON advcfl_uvel_max              =   7.0413964325189E-02
(PID.TID 0000.0001) %MON advcfl_vvel_max              =   7.0386321112045E-02
(PID.TID 0000.0001) %MON advcfl_wvel_max              =   9.9170578897703E-03
(PID.TID 0000.0001) %MON advcfl_W_hf_max              =   1.0250679585394E-02
(PID.TID 0000.0001) %MON am_eta_mean                  =  -1.0630493786944E+11
(PID.TID 0000.0001) %MON am_uZo_mean                  =   1.0616975665360E+11
(PID.TID 0000.0001) %MON am_tot_mean                  =  -1.3518121583128E+08
(PID.TID 0000.0001) %MON pe_b_mean                    =   7.2446843622863E+00
(PID.TID 0000.0001) %MON ke_max                       =   2.7784660141224E+02
(PID.TID 0000.0001) %MON ke_mean                      =   5.4747179646221E+01
(PID.TID 0000.0001) %MON ke_vol                       =   5.0986421042785E+19
(PID.TID 0000.0001) %MON vort_r_min                   =  -6.2603156935857E-06
(PID.TID 0000.0001) %MON vort_r_max                   =   6.2590173821871E-06
(PID.TID 0000.0001) %MON vort_a_mean                  =  -1.5688673112225E-19
(PID.TID 0000.0001) %MON vort_a_sd                    =   8.4680284692748E-05
(PID.TID 0000.0001) %MON vort_p_mean                  =  -1.5933797430205E-19
(PID.TID 0000.0001) %MON vort_p_sd                    =   8.4229697453894E-05
(PID.TID 0000.0001) %MON surfExpan_theta_mean         =  -4.3057038603250E+00
(PID.TID 0000.0001) %MON surfExpan_salt_mean          =  -4.1178577565914E-04
(PID.TID 0000.0001) %MON surfExpan_Heat_mean          =  -3.8068563928989E+02
(PID.TID 0000.0001) %MON En_Budget_T2PE_mean          =   4.9332132559679E+01
(PID.TID 0000.0001) // =======================================================
(PID.TID 0000.0001) // End MONITOR dynamic field statistics
(PID.TID 0000.0001) // =======================================================
 cg2d: Sum(rhs),rhsMax =  -5.58793544769287E-09  1.90528397668759E+04
(PID.TID 0000.0001)      cg2d_init_res =   6.06958571601157E+04
(PID.TID 0000.0001)      cg2d_iters(min,last) =      -1      14
(PID.TID 0000.0001)      cg2d_last_res =   7.11934864044456E-12
(PID.TID 0000.0001) // =======================================================
(PID.TID 0000.0001) // Begin MONITOR dynamic field statistics
(PID.TID 0000.0001) // =======================================================
(PID.TID 0000.0001) %MON time_tsnumber                =                    21
(PID.TID 0000.0001) %MON time_secondsf                =   7.5600000000000E+03
(PID.TID 0000.0001) %MON dynstat_eta_max              =   2.3776801801022E+03
(PID.TID 0000.0001) %MON dynstat_eta_min              =  -1.7836532480683E+03
(PID.TID 0000.0001) %MON dynstat_eta_mean             =   1.2853618406557E-13
(PID.TID 0000.0001) %MON dynstat_eta_sd               =   1.4225484698040E+03
(PID.TID 0000.0001) %MON dynstat_eta_del2             =   5.7398388245876E-01
(PID.TID 0000.0001) %MON dynstat_uvel_max             =   2.4281248503972E+01
(PID.TID 0000.0001) %MON dynstat_uvel_min             =  -2.4306543765849E+01
(PID.TID 0000.0001) %MON dynstat_uvel_mean            =   6.1314433600825E-01
(PID.TID 0000.0001) %MON dynstat_uvel_sd              =   7.6536517268320E+00
(PID.TID 0000.0001) %MON dynstat_uvel_del2            =   1.4977243729584E-03
(PID.TID 0000.0001) %MON dynstat_vvel_max             =   2.4308773687373E+01
(PID.TID 0000.0001) %MON dynstat_vvel_min             =  -2.4281323594405E+01
(PID.TID 0000.0001) %MON dynstat_vvel_mean            =   6.1890135806901E-01
(PID.TID 0000.0001) %MON dynstat_vvel_sd              =   7.6533936894349E+00
(PID.TID 0000.0001) %MON dynstat_vvel_del2            =   1.4984540558241E-03
(PID.TID 0000.0001) %MON dynstat_wvel_max             =   2.3067295687537E-01
(PID.TID 0000.0001) %MON dynstat_wvel_min             =  -2.6392928097417E-01
(PID.TID 0000.0001) %MON dynstat_wvel_mean            =   5.5350502180406E-17
(PID.TID 0000.0001) %MON dynstat_wvel_sd              =   7.5733140969584E-02
(PID.TID 0000.0001) %MON dynstat_wvel_del2            =   7.6193721021793E-05
(PID.TID 0000.0001) %MON dynstat_theta_max            =   1.1558739008226E+03
(PID.TID 0000.0001) %MON dynstat_theta_min            =   2.5721810383887E+02
(PID.TID 0000.0001) %MON dynstat_theta_mean           =   3.2789216305731E+02
(PID.TID 0000.0001) %MON dynstat_theta_sd             =   9.0381118368966E+01
(PID.TID 0000.0001) %MON dynstat_theta_del2           =   6.4297787071768E-04
(PID.TID 0000.0001) %MON dynstat_salt_max             =   2.0320430970906E-02
(PID.TID 0000.0001) %MON dynstat_salt_min             =   0.0000000000000E+00
(PID.TID 0000.0001) %MON dynstat_salt_mean            =   1.8664902666796E-03
(PID.TID 0000.0001) %MON dynstat_salt_sd              =   3.8586509672971E-03
(PID.TID 0000.0001) %MON dynstat_salt_del2            =   7.8869642020101E-07
(PID.TID 0000.0001) %MON trAdv_CFL_u_max              =   6.7183079591977E-02
(PID.TID 0000.0001) %MON trAdv_CFL_v_max              =   6.7159922966093E-02
(PID.TID 0000.0001) %MON trAdv_CFL_w_max              =   1.0620264209390E-02
(PID.TID 0000.0001) %MON advcfl_uvel_max              =   7.3452484660818E-02
(PID.TID 0000.0001) %MON advcfl_vvel_max              =   7.3424096758183E-02
(PID.TID 0000.0001) %MON advcfl_wvel_max              =   1.0172863078233E-02
(PID.TID 0000.0001) %MON advcfl_W_hf_max              =   1.0620264209390E-02
(PID.TID 0000.0001) %MON am_eta_mean                  =  -1.1623843133370E+11
(PID.TID 0000.0001) %MON am_uZo_mean                  =   1.1608271708016E+11
(PID.TID 0000.0001) %MON am_tot_mean                  =  -1.5571425354301E+08
(PID.TID 0000.0001) %MON pe_b_mean                    =   8.5706898776382E+00
(PID.TID 0000.0001) %MON ke_max                       =   3.0081955786882E+02
(PID.TID 0000.0001) %MON ke_mean                      =   5.8955902294563E+01
(PID.TID 0000.0001) %MON ke_vol                       =   5.0986421042784E+19
(PID.TID 0000.0001) %MON vort_r_min                   =  -6.7765821860202E-06
(PID.TID 0000.0001) %MON vort_r_max                   =   6.7748150592774E-06
(PID.TID 0000.0001) %MON vort_a_mean                  =   2.6964906911637E-19
(PID.TID 0000.0001) %MON vort_a_sd                    =   8.4724358836433E-05
(PID.TID 0000.0001) %MON vort_p_mean                  =   2.6964886198244E-19
(PID.TID 0000.0001) %MON vort_p_sd                    =   8.4231123464462E-05
(PID.TID 0000.0001) %MON surfExpan_theta_mean         =  -4.4042064754135E+00
(PID.TID 0000.0001) %MON surfExpan_salt_mean          =  -4.2275821122470E-04
(PID.TID 0000.0001) %MON surfExpan_Heat_mean          =  -3.8969301101995E+02
(PID.TID 0000.0001) %MON En_Budget_T2PE_mean          =   5.1099658526034E+01
(PID.TID 0000.0001) // =======================================================
(PID.TID 0000.0001) // End MONITOR dynamic field statistics
(PID.TID 0000.0001) // =======================================================
 cg2d: Sum(rhs),rhsMax =   3.35276126861572E-08  2.05606550486059E+04
(PID.TID 0000.0001)      cg2d_init_res =   6.20530097304186E+04
(PID.TID 0000.0001)      cg2d_iters(min,last) =      -1      14
(PID.TID 0000.0001)      cg2d_last_res =   7.54744069321663E-12
(PID.TID 0000.0001) // =======================================================
(PID.TID 0000.0001) // Begin MONITOR dynamic field statistics
(PID.TID 0000.0001) // =======================================================
(PID.TID 0000.0001) %MON time_tsnumber                =                    22
(PID.TID 0000.0001) %MON time_secondsf                =   7.9200000000000E+03
(PID.TID 0000.0001) %MON dynstat_eta_max              =   2.5662687203221E+03
(PID.TID 0000.0001) %MON dynstat_eta_min              =  -1.9301308868512E+03
(PID.TID 0000.0001) %MON dynstat_eta_mean             =  -5.1414473626228E-13
(PID.TID 0000.0001) %MON dynstat_eta_sd               =   1.5397790202648E+03
(PID.TID 0000.0001) %MON dynstat_eta_del2             =   5.9517479513047E-01
(PID.TID 0000.0001) %MON dynstat_uvel_max             =   2.5198703468095E+01
(PID.TID 0000.0001) %MON dynstat_uvel_min             =  -2.5225906128345E+01
(PID.TID 0000.0001) %MON dynstat_uvel_mean            =   6.6429260861814E-01
(PID.TID 0000.0001) %MON dynstat_uvel_sd              =   7.9185946995872E+00
(PID.TID 0000.0001) %MON dynstat_uvel_del2            =   1.5421151394581E-03
(PID.TID 0000.0001) %MON dynstat_vvel_max             =   2.5228481105364E+01
(PID.TID 0000.0001) %MON dynstat_vvel_min             =  -2.5198332731868E+01
(PID.TID 0000.0001) %MON dynstat_vvel_mean            =   6.7057651049913E-01
(PID.TID 0000.0001) %MON dynstat_vvel_sd              =   7.9182753904347E+00
(PID.TID 0000.0001) %MON dynstat_vvel_del2            =   1.5428877072010E-03
(PID.TID 0000.0001) %MON dynstat_wvel_max             =   2.4056139855659E-01
(PID.TID 0000.0001) %MON dynstat_wvel_min             =  -2.6955202195768E-01
(PID.TID 0000.0001) %MON dynstat_wvel_mean            =  -2.4656132789454E-16
(PID.TID 0000.0001) %MON dynstat_wvel_sd              =   7.8533159469047E-02
(PID.TID 0000.0001) %MON dynstat_wvel_del2            =   7.8488658399622E-05
(PID.TID 0000.0001) %MON dynstat_theta_max            =   1.1560517770791E+03
(PID.TID 0000.0001) %MON dynstat_theta_min            =   2.5730341166034E+02
(PID.TID 0000.0001) %MON dynstat_theta_mean           =   3.2789128488487E+02
(PID.TID 0000.0001) %MON dynstat_theta_sd             =   9.0383130887691E+01
(PID.TID 0000.0001) %MON dynstat_theta_del2           =   6.4162550517112E-04
(PID.TID 0000.0001) %MON dynstat_salt_max             =   2.0320691959239E-02
(PID.TID 0000.0001) %MON dynstat_salt_min             =   0.0000000000000E+00
(PID.TID 0000.0001) %MON dynstat_salt_mean            =   1.8697414720133E-03
(PID.TID 0000.0001) %MON dynstat_salt_sd              =   3.8623797254678E-03
(PID.TID 0000.0001) %MON dynstat_salt_del2            =   7.9742292996201E-07
(PID.TID 0000.0001) %MON trAdv_CFL_u_max              =   7.0420149864789E-02
(PID.TID 0000.0001) %MON trAdv_CFL_v_max              =   7.0395920802041E-02
(PID.TID 0000.0001) %MON trAdv_CFL_w_max              =   1.0959529270833E-02
(PID.TID 0000.0001) %MON advcfl_uvel_max              =   7.6393553493565E-02
(PID.TID 0000.0001) %MON advcfl_vvel_max              =   7.6364630078818E-02
(PID.TID 0000.0001) %MON advcfl_wvel_max              =   1.0389585428776E-02
(PID.TID 0000.0001) %MON advcfl_W_hf_max              =   1.0959529270833E-02
(PID.TID 0000.0001) %MON am_eta_mean                  =  -1.2643000412063E+11
(PID.TID 0000.0001) %MON am_uZo_mean                  =   1.2625228470178E+11
(PID.TID 0000.0001) %MON am_tot_mean                  =  -1.7771941884348E+08
(PID.TID 0000.0001) %MON pe_b_mean                    =   1.0041496268362E+01
(PID.TID 0000.0001) %MON ke_max                       =   3.2398644653648E+02
(PID.TID 0000.0001) %MON ke_mean                      =   6.3147092350797E+01
(PID.TID 0000.0001) %MON ke_vol                       =   5.0986421042785E+19
(PID.TID 0000.0001) %MON vort_r_min                   =  -7.3016768620520E-06
(PID.TID 0000.0001) %MON vort_r_max                   =   7.2994167720521E-06
(PID.TID 0000.0001) %MON vort_a_mean                  =  -1.9610841390281E-19
(PID.TID 0000.0001) %MON vort_a_sd                    =   8.4769657265673E-05
(PID.TID 0000.0001) %MON vort_p_mean                  =  -1.9610825018562E-19
(PID.TID 0000.0001) %MON vort_p_sd                    =   8.4232572635122E-05
(PID.TID 0000.0001) %MON surfExpan_theta_mean         =  -4.4886660062778E+00
(PID.TID 0000.0001) %MON surfExpan_salt_mean          =  -4.3253483475680E-04
(PID.TID 0000.0001) %MON surfExpan_Heat_mean          =  -3.9747872496985E+02
(PID.TID 0000.0001) %MON En_Budget_T2PE_mean          =   5.2781696768064E+01
(PID.TID 0000.0001) // =======================================================
(PID.TID 0000.0001) // End MONITOR dynamic field statistics
(PID.TID 0000.0001) // =======================================================
 cg2d: Sum(rhs),rhsMax =  -2.04890966415405E-08  2.20999306435166E+04
(PID.TID 0000.0001)      cg2d_init_res =   6.32255102956387E+04
(PID.TID 0000.0001)      cg2d_iters(min,last) =      -1      14
(PID.TID 0000.0001)      cg2d_last_res =   8.01422917126803E-12
(PID.TID 0000.0001) // =======================================================
(PID.TID 0000.0001) // Begin MONITOR dynamic field statistics
(PID.TID 0000.0001) // =======================================================
(PID.TID 0000.0001) %MON time_tsnumber                =                    23
(PID.TID 0000.0001) %MON time_secondsf                =   8.2800000000000E+03
(PID.TID 0000.0001) %MON dynstat_eta_max              =   2.7619231505377E+03
(PID.TID 0000.0001) %MON dynstat_eta_min              =  -2.0792040047363E+03
(PID.TID 0000.0001) %MON dynstat_eta_mean             =  -2.1422697344262E-13
(PID.TID 0000.0001) %MON dynstat_eta_sd               =   1.6592259444184E+03
(PID.TID 0000.0001) %MON dynstat_eta_del2             =   6.1566043091487E-01
(PID.TID 0000.0001) %MON dynstat_uvel_max             =   2.6148392370729E+01
(PID.TID 0000.0001) %MON dynstat_uvel_min             =  -2.6146307832373E+01
(PID.TID 0000.0001) %MON dynstat_uvel_mean            =   7.1636166467278E-01
(PID.TID 0000.0001) %MON dynstat_uvel_sd              =   8.1723348228201E+00
(PID.TID 0000.0001) %MON dynstat_uvel_del2            =   1.5840484591374E-03
(PID.TID 0000.0001) %MON dynstat_vvel_max             =   2.6138125406062E+01
(PID.TID 0000.0001) %MON dynstat_vvel_min             =  -2.6118576782250E+01
(PID.TID 0000.0001) %MON dynstat_vvel_mean            =   7.2318759336886E-01
(PID.TID 0000.0001) %MON dynstat_vvel_sd              =   8.1719453551647E+00
(PID.TID 0000.0001) %MON dynstat_vvel_del2            =   1.5848569510372E-03
(PID.TID 0000.0001) %MON dynstat_wvel_max             =   2.4988670234171E-01
(PID.TID 0000.0001) %MON dynstat_wvel_min             =  -2.7416897733840E-01
(PID.TID 0000.0001) %MON dynstat_wvel_mean            =  -2.1133828105246E-16
(PID.TID 0000.0001) %MON dynstat_wvel_sd              =   8.1237753075380E-02
(PID.TID 0000.0001) %MON dynstat_wvel_del2            =   8.0629117675112E-05
(PID.TID 0000.0001) %MON dynstat_theta_max            =   1.1562212613539E+03
(PID.TID 0000.0001) %MON dynstat_theta_min            =   2.5738652646226E+02
(PID.TID 0000.0001) %MON dynstat_theta_mean           =   3.2789021242892E+02
(PID.TID 0000.0001) %MON dynstat_theta_sd             =   9.0385296359138E+01
(PID.TID 0000.0001) %MON dynstat_theta_del2           =   6.4117194612281E-04
(PID.TID 0000.0001) %MON dynstat_salt_max             =   2.0320954389938E-02
(PID.TID 0000.0001) %MON dynstat_salt_min             =   0.0000000000000E+00
(PID.TID 0000.0001) %MON dynstat_salt_mean            =   1.8730369268842E-03
(PID.TID 0000.0001) %MON dynstat_salt_sd              =   3.8663135324662E-03
(PID.TID 0000.0001) %MON dynstat_salt_del2            =   8.0447436601721E-07
(PID.TID 0000.0001) %MON trAdv_CFL_u_max              =   7.3613601594199E-02
(PID.TID 0000.0001) %MON trAdv_CFL_v_max              =   7.3588438462941E-02
(PID.TID 0000.0001) %MON trAdv_CFL_w_max              =   1.1268275952483E-02
(PID.TID 0000.0001) %MON advcfl_uvel_max              =   7.9232188333686E-02
(PID.TID 0000.0001) %MON advcfl_vvel_max              =   7.9202934909561E-02
(PID.TID 0000.0001) %MON advcfl_wvel_max              =   1.0567540882422E-02
(PID.TID 0000.0001) %MON advcfl_W_hf_max              =   1.1268275952483E-02
(PID.TID 0000.0001) %MON am_eta_mean                  =  -1.3684902810749E+11
(PID.TID 0000.0001) %MON am_uZo_mean                  =   1.3664788583337E+11
(PID.TID 0000.0001) %MON am_tot_mean                  =  -2.0114227412242E+08
(PID.TID 0000.0001) %MON pe_b_mean                    =   1.1659842795220E+01
(PID.TID 0000.0001) %MON ke_max                       =   3.4725623408940E+02
(PID.TID 0000.0001) %MON ke_mean                      =   6.7301960837038E+01
(PID.TID 0000.0001) %MON ke_vol                       =   5.0986421042785E+19
(PID.TID 0000.0001) %MON vort_r_min                   =  -7.8339663311318E-06
(PID.TID 0000.0001) %MON vort_r_max                   =   7.8311931942031E-06
(PID.TID 0000.0001) %MON vort_a_mean                  =   2.3287874150959E-19
(PID.TID 0000.0001) %MON vort_a_sd                    =   8.4816061339254E-05
(PID.TID 0000.0001) %MON vort_p_mean                  =   2.3287853129272E-19
(PID.TID 0000.0001) %MON vort_p_sd                    =   8.4234052071865E-05
(PID.TID 0000.0001) %MON surfExpan_theta_mean         =  -4.5589453893387E+00
(PID.TID 0000.0001) %MON surfExpan_salt_mean          =  -4.4109351949302E-04
(PID.TID 0000.0001) %MON surfExpan_Heat_mean          =  -4.0402735354799E+02
(PID.TID 0000.0001) %MON En_Budget_T2PE_mean          =   5.4376907976440E+01
(PID.TID 0000.0001) // =======================================================
(PID.TID 0000.0001) // End MONITOR dynamic field statistics
(PID.TID 0000.0001) // =======================================================
 cg2d: Sum(rhs),rhsMax =  -7.45058059692383E-09  2.36689889142946E+04
(PID.TID 0000.0001)      cg2d_init_res =   6.42103629690738E+04
(PID.TID 0000.0001)      cg2d_iters(min,last) =      -1      14
(PID.TID 0000.0001)      cg2d_last_res =   8.51991542287869E-12
(PID.TID 0000.0001) // =======================================================
(PID.TID 0000.0001) // Begin MONITOR dynamic field statistics
(PID.TID 0000.0001) // =======================================================
(PID.TID 0000.0001) %MON time_tsnumber                =                    24
(PID.TID 0000.0001) %MON time_secondsf                =   8.6400000000000E+03
(PID.TID 0000.0001) %MON dynstat_eta_max              =   2.9626319306245E+03
(PID.TID 0000.0001) %MON dynstat_eta_min              =  -2.2304380737811E+03
(PID.TID 0000.0001) %MON dynstat_eta_mean             =   3.8560855219671E-13
(PID.TID 0000.0001) %MON dynstat_eta_sd               =   1.7805347661625E+03
(PID.TID 0000.0001) %MON dynstat_eta_del2             =   6.3550263783267E-01
(PID.TID 0000.0001) %MON dynstat_uvel_max             =   2.7067840330849E+01
(PID.TID 0000.0001) %MON dynstat_uvel_min             =  -2.7065785817314E+01
(PID.TID 0000.0001) %MON dynstat_uvel_mean            =   7.6919105945477E-01
(PID.TID 0000.0001) %MON dynstat_uvel_sd              =   8.4148343949405E+00
(PID.TID 0000.0001) %MON dynstat_uvel_del2            =   1.6234604796158E-03
(PID.TID 0000.0001) %MON dynstat_vvel_max             =   2.7057490376118E+01
(PID.TID 0000.0001) %MON dynstat_vvel_min             =  -2.7035549156552E+01
(PID.TID 0000.0001) %MON dynstat_vvel_mean            =   7.7657338731629E-01
(PID.TID 0000.0001) %MON dynstat_vvel_sd              =   8.4143656451884E+00
(PID.TID 0000.0001) %MON dynstat_vvel_del2            =   1.6242967536970E-03
(PID.TID 0000.0001) %MON dynstat_wvel_max             =   2.5861042920778E-01
(PID.TID 0000.0001) %MON dynstat_wvel_min             =  -2.7779543327792E-01
(PID.TID 0000.0001) %MON dynstat_wvel_mean            =  -1.7863116612767E-16
(PID.TID 0000.0001) %MON dynstat_wvel_sd              =   8.3845267825612E-02
(PID.TID 0000.0001) %MON dynstat_wvel_del2            =   8.2616246667700E-05
(PID.TID 0000.0001) %MON dynstat_theta_max            =   1.1564015857794E+03
(PID.TID 0000.0001) %MON dynstat_theta_min            =   2.5746745435112E+02
(PID.TID 0000.0001) %MON dynstat_theta_mean           =   3.2788894931314E+02
(PID.TID 0000.0001) %MON dynstat_theta_sd             =   9.0387607484690E+01
(PID.TID 0000.0001) %MON dynstat_theta_del2           =   6.4280204592251E-04
(PID.TID 0000.0001) %MON dynstat_salt_max             =   2.0321218392247E-02
(PID.TID 0000.0001) %MON dynstat_salt_min             =   0.0000000000000E+00
(PID.TID 0000.0001) %MON dynstat_salt_mean            =   1.8763868001186E-03
(PID.TID 0000.0001) %MON dynstat_salt_sd              =   3.8704741896776E-03
(PID.TID 0000.0001) %MON dynstat_salt_del2            =   8.1072150110804E-07
(PID.TID 0000.0001) %MON trAdv_CFL_u_max              =   7.6758027451292E-02
(PID.TID 0000.0001) %MON trAdv_CFL_v_max              =   7.6732043994092E-02
(PID.TID 0000.0001) %MON trAdv_CFL_w_max              =   1.1546630762271E-02
(PID.TID 0000.0001) %MON advcfl_uvel_max              =   8.1963548420507E-02
(PID.TID 0000.0001) %MON advcfl_vvel_max              =   8.1934152359794E-02
(PID.TID 0000.0001) %MON advcfl_wvel_max              =   1.0707318627414E-02
(PID.TID 0000.0001) %MON advcfl_W_hf_max              =   1.1546630762271E-02
(PID.TID 0000.0001) %MON am_eta_mean                  =  -1.4746422805353E+11
(PID.TID 0000.0001) %MON am_uZo_mean                  =   1.4723831458495E+11
(PID.TID 0000.0001) %MON am_tot_mean                  =  -2.2591346857642E+08
(PID.TID 0000.0001) %MON pe_b_mean                    =   1.3427110134304E+01
(PID.TID 0000.0001) %MON ke_max                       =   3.7053926064271E+02
(PID.TID 0000.0001) %MON ke_mean                      =   7.1402854108598E+01
(PID.TID 0000.0001) %MON ke_vol                       =   5.0986421042785E+19
(PID.TID 0000.0001) %MON vort_r_min                   =  -8.3717358760610E-06
(PID.TID 0000.0001) %MON vort_r_max                   =   8.3684345031394E-06
(PID.TID 0000.0001) %MON vort_a_mean                  =   4.9027103475703E-21
(PID.TID 0000.0001) %MON vort_a_sd                    =   8.4863444869827E-05
(PID.TID 0000.0001) %MON vort_p_mean                  =   4.9027055840092E-21
(PID.TID 0000.0001) %MON vort_p_sd                    =   8.4235565305725E-05
(PID.TID 0000.0001) %MON surfExpan_theta_mean         =  -4.6149511172670E+00
(PID.TID 0000.0001) %MON surfExpan_salt_mean          =  -4.4841560243083E-04
(PID.TID 0000.0001) %MON surfExpan_Heat_mean          =  -4.0932711470494E+02
(PID.TID 0000.0001) %MON En_Budget_T2PE_mean          =   5.5883988829406E+01
(PID.TID 0000.0001) // =======================================================
(PID.TID 0000.0001) // End MONITOR dynamic field statistics
(PID.TID 0000.0001) // =======================================================
(PID.TID 0000.0001)   Exporting atmospheric surf fluxes at iter=        24
(PID.TID 0000.0001)   Importing  oceanic surface fields at iter=        24
 cg2d: Sum(rhs),rhsMax =  -1.67638063430786E-08  2.52647116357770E+04
(PID.TID 0000.0001)      cg2d_init_res =   6.50050900965914E+04
(PID.TID 0000.0001)      cg2d_iters(min,last) =      -1      14
(PID.TID 0000.0001)      cg2d_last_res =   9.06251551986906E-12
(PID.TID 0000.0001) // =======================================================
(PID.TID 0000.0001) // Begin MONITOR dynamic field statistics
(PID.TID 0000.0001) // =======================================================
(PID.TID 0000.0001) %MON time_tsnumber                =                    25
(PID.TID 0000.0001) %MON time_secondsf                =   9.0000000000000E+03
(PID.TID 0000.0001) %MON dynstat_eta_max              =   3.1658379744270E+03
(PID.TID 0000.0001) %MON dynstat_eta_min              =  -2.3834139095475E+03
(PID.TID 0000.0001) %MON dynstat_eta_mean             =   3.4276315750819E-13
(PID.TID 0000.0001) %MON dynstat_eta_sd               =   1.9033463348979E+03
(PID.TID 0000.0001) %MON dynstat_eta_del2             =   6.5475471529436E-01
(PID.TID 0000.0001) %MON dynstat_uvel_max             =   2.7953130229805E+01
(PID.TID 0000.0001) %MON dynstat_uvel_min             =  -2.7951175376947E+01
(PID.TID 0000.0001) %MON dynstat_uvel_mean            =   8.2261932946923E-01
(PID.TID 0000.0001) %MON dynstat_uvel_sd              =   8.6461134775992E+00
(PID.TID 0000.0001) %MON dynstat_uvel_del2            =   1.6603534149553E-03
(PID.TID 0000.0001) %MON dynstat_vvel_max             =   2.7942752482166E+01
(PID.TID 0000.0001) %MON dynstat_vvel_min             =  -2.7918429022266E+01
(PID.TID 0000.0001) %MON dynstat_vvel_mean            =   8.3057198001822E-01
(PID.TID 0000.0001) %MON dynstat_vvel_sd              =   8.6455558747467E+00
(PID.TID 0000.0001) %MON dynstat_vvel_del2            =   1.6612047005695E-03
(PID.TID 0000.0001) %MON dynstat_wvel_max             =   2.6671814246496E-01
(PID.TID 0000.0001) %MON dynstat_wvel_min             =  -2.8045423409199E-01
(PID.TID 0000.0001) %MON dynstat_wvel_mean            =   2.5159319172912E-18
(PID.TID 0000.0001) %MON dynstat_wvel_sd              =   8.6353445974347E-02
(PID.TID 0000.0001) %MON dynstat_wvel_del2            =   8.4448446179601E-05
(PID.TID 0000.0001) %MON dynstat_theta_max            =   1.1565982408009E+03
(PID.TID 0000.0001) %MON dynstat_theta_min            =   2.5754595404017E+02
(PID.TID 0000.0001) %MON dynstat_theta_mean           =   3.2788749067203E+02
(PID.TID 0000.0001) %MON dynstat_theta_sd             =   9.0390061924709E+01
(PID.TID 0000.0001) %MON dynstat_theta_del2           =   6.4716374291808E-04
(PID.TID 0000.0001) %MON dynstat_salt_max             =   2.0321484415446E-02
(PID.TID 0000.0001) %MON dynstat_salt_min             =   0.0000000000000E+00
(PID.TID 0000.0001) %MON dynstat_salt_mean            =   1.8797944393257E-03
(PID.TID 0000.0001) %MON dynstat_salt_sd              =   3.8748886173716E-03
(PID.TID 0000.0001) %MON dynstat_salt_del2            =   8.1631712246935E-07
(PID.TID 0000.0001) %MON trAdv_CFL_u_max              =   7.9847979541990E-02
(PID.TID 0000.0001) %MON trAdv_CFL_v_max              =   7.9821257042401E-02
(PID.TID 0000.0001) %MON trAdv_CFL_w_max              =   1.1794920851382E-02
(PID.TID 0000.0001) %MON advcfl_uvel_max              =   8.4582906508602E-02
(PID.TID 0000.0001) %MON advcfl_vvel_max              =   8.4553518907668E-02
(PID.TID 0000.0001) %MON advcfl_wvel_max              =   1.0809799172711E-02
(PID.TID 0000.0001) %MON advcfl_W_hf_max              =   1.1794920851382E-02
(PID.TID 0000.0001) %MON am_eta_mean                  =  -1.5824377070682E+11
(PID.TID 0000.0001) %MON am_uZo_mean                  =   1.5799182922247E+11
(PID.TID 0000.0001) %MON am_tot_mean                  =  -2.5194148435251E+08
(PID.TID 0000.0001) %MON pe_b_mean                    =   1.5343246965406E+01
(PID.TID 0000.0001) %MON ke_max                       =   3.9374743402767E+02
(PID.TID 0000.0001) %MON ke_mean                      =   7.5433733513112E+01
(PID.TID 0000.0001) %MON ke_vol                       =   5.0986421042785E+19
(PID.TID 0000.0001) %MON vort_r_min                   =  -8.9131999111067E-06
(PID.TID 0000.0001) %MON vort_r_max                   =   8.9093600813706E-06
(PID.TID 0000.0001) %MON vort_a_mean                  =  -1.5688673112225E-19
(PID.TID 0000.0001) %MON vort_a_sd                    =   8.4911679885563E-05
(PID.TID 0000.0001) %MON vort_p_mean                  =  -1.6178927295412E-19
(PID.TID 0000.0001) %MON vort_p_sd                    =   8.4237117670516E-05
(PID.TID 0000.0001) %MON surfExpan_theta_mean         =  -4.6566387106623E+00
(PID.TID 0000.0001) %MON surfExpan_salt_mean          =  -4.5448785862093E-04
(PID.TID 0000.0001) %MON surfExpan_Heat_mean          =  -4.1337039730275E+02
(PID.TID 0000.0001) %MON En_Budget_T2PE_mean          =   5.7302019688428E+01
(PID.TID 0000.0001) // =======================================================
(PID.TID 0000.0001) // End MONITOR dynamic field statistics
(PID.TID 0000.0001) // =======================================================
 cg2d: Sum(rhs),rhsMax =  -1.30385160446167E-08  2.68835233503593E+04
(PID.TID 0000.0001)      cg2d_init_res =   6.56077675884707E+04
(PID.TID 0000.0001)      cg2d_iters(min,last) =      -1      14
(PID.TID 0000.0001)      cg2d_last_res =   9.63908401911369E-12
(PID.TID 0000.0001) // =======================================================
(PID.TID 0000.0001) // Begin MONITOR dynamic field statistics
(PID.TID 0000.0001) // =======================================================
(PID.TID 0000.0001) %MON time_tsnumber                =                    26
(PID.TID 0000.0001) %MON time_secondsf                =   9.3600000000000E+03
(PID.TID 0000.0001) %MON dynstat_eta_max              =   3.3707714233571E+03
(PID.TID 0000.0001) %MON dynstat_eta_min              =  -2.5377297229105E+03
(PID.TID 0000.0001) %MON dynstat_eta_mean             =   3.4276315750819E-13
(PID.TID 0000.0001) %MON dynstat_eta_sd               =   2.0272978823764E+03
(PID.TID 0000.0001) %MON dynstat_eta_del2             =   6.7344942734553E-01
(PID.TID 0000.0001) %MON dynstat_uvel_max             =   2.8802733626489E+01
(PID.TID 0000.0001) %MON dynstat_uvel_min             =  -2.8800936951169E+01
(PID.TID 0000.0001) %MON dynstat_uvel_mean            =   8.7648482635925E-01
(PID.TID 0000.0001) %MON dynstat_uvel_sd              =   8.8662264453103E+00
(PID.TID 0000.0001) %MON dynstat_uvel_del2            =   1.6947329410418E-03
(PID.TID 0000.0001) %MON dynstat_vvel_max             =   2.8792369734956E+01
(PID.TID 0000.0001) %MON dynstat_vvel_min             =  -2.8765695455414E+01
(PID.TID 0000.0001) %MON dynstat_vvel_mean            =   8.8502094501002E-01
(PID.TID 0000.0001) %MON dynstat_vvel_sd              =   8.8655713628938E+00
(PID.TID 0000.0001) %MON dynstat_vvel_del2            =   1.6955949335388E-03
(PID.TID 0000.0001) %MON dynstat_wvel_max             =   2.7419664961540E-01
(PID.TID 0000.0001) %MON dynstat_wvel_min             =  -2.8217510586293E-01
(PID.TID 0000.0001) %MON dynstat_wvel_mean            =  -4.5286774511241E-17
(PID.TID 0000.0001) %MON dynstat_wvel_sd              =   8.8760817224379E-02
(PID.TID 0000.0001) %MON dynstat_wvel_del2            =   8.6127759679858E-05
(PID.TID 0000.0001) %MON dynstat_theta_max            =   1.1567786265792E+03
(PID.TID 0000.0001) %MON dynstat_theta_min            =   2.5762222532770E+02
(PID.TID 0000.0001) %MON dynstat_theta_mean           =   3.2788584190034E+02
(PID.TID 0000.0001) %MON dynstat_theta_sd             =   9.0392651031378E+01
(PID.TID 0000.0001) %MON dynstat_theta_del2           =   6.5425542495465E-04
(PID.TID 0000.0001) %MON dynstat_salt_max             =   2.0321752323418E-02
(PID.TID 0000.0001) %MON dynstat_salt_min             =   0.0000000000000E+00
(PID.TID 0000.0001) %MON dynstat_salt_mean            =   1.8832864068209E-03
(PID.TID 0000.0001) %MON dynstat_salt_sd              =   3.8795975170596E-03
(PID.TID 0000.0001) %MON dynstat_salt_del2            =   8.2204650824637E-07
(PID.TID 0000.0001) %MON trAdv_CFL_u_max              =   8.2877989939050E-02
(PID.TID 0000.0001) %MON trAdv_CFL_v_max              =   8.2850578876503E-02
(PID.TID 0000.0001) %MON trAdv_CFL_w_max              =   1.2013879245259E-02
(PID.TID 0000.0001) %MON advcfl_uvel_max              =   8.7085663028473E-02
(PID.TID 0000.0001) %MON advcfl_vvel_max              =   8.7056387891835E-02
(PID.TID 0000.0001) %MON advcfl_wvel_max              =   1.0894395086042E-02
(PID.TID 0000.0001) %MON advcfl_W_hf_max              =   1.2013879245259E-02
(PID.TID 0000.0001) %MON am_eta_mean                  =  -1.6915535594547E+11
(PID.TID 0000.0001) %MON am_uZo_mean                  =   1.6887623466026E+11
(PID.TID 0000.0001) %MON am_tot_mean                  =  -2.7912128521478E+08
(PID.TID 0000.0001) %MON pe_b_mean                    =   1.7406712995546E+01
(PID.TID 0000.0001) %MON ke_max                       =   4.1679474759562E+02
(PID.TID 0000.0001) %MON ke_mean                      =   7.9379907347060E+01
(PID.TID 0000.0001) %MON ke_vol                       =   5.0986421042785E+19
(PID.TID 0000.0001) %MON vort_r_min                   =  -9.4565172994147E-06
(PID.TID 0000.0001) %MON vort_r_max                   =   9.4521347195526E-06
(PID.TID 0000.0001) %MON vort_a_mean                  =  -1.7404621733875E-19
(PID.TID 0000.0001) %MON vort_a_sd                    =   8.4960633232287E-05
(PID.TID 0000.0001) %MON vort_p_mean                  =  -1.7404602369870E-19
(PID.TID 0000.0001) %MON vort_p_sd                    =   8.4238712651414E-05
(PID.TID 0000.0001) %MON surfExpan_theta_mean         =  -4.6840052298512E+00
(PID.TID 0000.0001) %MON surfExpan_salt_mean          =  -4.5929482087295E-04
(PID.TID 0000.0001) %MON surfExpan_Heat_mean          =  -4.1615304248067E+02
(PID.TID 0000.0001) %MON En_Budget_T2PE_mean          =   5.8630103907931E+01
(PID.TID 0000.0001) // =======================================================
(PID.TID 0000.0001) // End MONITOR dynamic field statistics
(PID.TID 0000.0001) // =======================================================
 cg2d: Sum(rhs),rhsMax =   6.33299350738525E-08  2.85211131233725E+04
(PID.TID 0000.0001)      cg2d_init_res =   6.60170417066992E+04
(PID.TID 0000.0001)      cg2d_iters(min,last) =      -1      14
(PID.TID 0000.0001)      cg2d_last_res =   1.02479376270680E-11
(PID.TID 0000.0001) // =======================================================
(PID.TID 0000.0001) // Begin MONITOR dynamic field statistics
(PID.TID 0000.0001) // =======================================================
(PID.TID 0000.0001) %MON time_tsnumber                =                    27
(PID.TID 0000.0001) %MON time_secondsf                =   9.7200000000000E+03
(PID.TID 0000.0001) %MON dynstat_eta_max              =   3.5768355392864E+03
(PID.TID 0000.0001) %MON dynstat_eta_min              =  -2.6930008372122E+03
(PID.TID 0000.0001) %MON dynstat_eta_mean             =  -9.4259868314751E-13
(PID.TID 0000.0001) %MON dynstat_eta_sd               =   2.1520240735578E+03
(PID.TID 0000.0001) %MON dynstat_eta_del2             =   6.9159398816265E-01
(PID.TID 0000.0001) %MON dynstat_uvel_max             =   2.9615161522649E+01
(PID.TID 0000.0001) %MON dynstat_uvel_min             =  -2.9613567430734E+01
(PID.TID 0000.0001) %MON dynstat_uvel_mean            =   9.3062635154843E-01
(PID.TID 0000.0001) %MON dynstat_uvel_sd              =   9.0752757656999E+00
(PID.TID 0000.0001) %MON dynstat_uvel_del2            =   1.7267103142569E-03
(PID.TID 0000.0001) %MON dynstat_vvel_max             =   2.9604836537451E+01
(PID.TID 0000.0001) %MON dynstat_vvel_min             =  -2.9575860528939E+01
(PID.TID 0000.0001) %MON dynstat_vvel_mean            =   9.3975796186522E-01
(PID.TID 0000.0001) %MON dynstat_vvel_sd              =   9.0745138736204E+00
(PID.TID 0000.0001) %MON dynstat_vvel_del2            =   1.7275593392473E-03
(PID.TID 0000.0001) %MON dynstat_wvel_max             =   2.8103764991690E-01
(PID.TID 0000.0001) %MON dynstat_wvel_min             =  -2.8299540196124E-01
(PID.TID 0000.0001) %MON dynstat_wvel_mean            =   2.3398166830808E-16
(PID.TID 0000.0001) %MON dynstat_wvel_sd              =   9.1066148993220E-02
(PID.TID 0000.0001) %MON dynstat_wvel_del2            =   8.7658870389257E-05
(PID.TID 0000.0001) %MON dynstat_theta_max            =   1.1569368767102E+03
(PID.TID 0000.0001) %MON dynstat_theta_min            =   2.5769633438167E+02
(PID.TID 0000.0001) %MON dynstat_theta_mean           =   3.2788400864675E+02
(PID.TID 0000.0001) %MON dynstat_theta_sd             =   9.0395365465307E+01
(PID.TID 0000.0001) %MON dynstat_theta_del2           =   6.6342373119391E-04
(PID.TID 0000.0001) %MON dynstat_salt_max             =   2.0322022298479E-02
(PID.TID 0000.0001) %MON dynstat_salt_min             =   0.0000000000000E+00
(PID.TID 0000.0001) %MON dynstat_salt_mean            =   1.8868791545747E-03
(PID.TID 0000.0001) %MON dynstat_salt_sd              =   3.8846411787626E-03
(PID.TID 0000.0001) %MON dynstat_salt_del2            =   8.2741271062038E-07
(PID.TID 0000.0001) %MON trAdv_CFL_u_max              =   8.5842611234008E-02
(PID.TID 0000.0001) %MON trAdv_CFL_v_max              =   8.5814530804678E-02
(PID.TID 0000.0001) %MON trAdv_CFL_w_max              =   1.2204228164151E-02
(PID.TID 0000.0001) %MON advcfl_uvel_max              =   8.9467393878895E-02
(PID.TID 0000.0001) %MON advcfl_vvel_max              =   8.9438284108754E-02
(PID.TID 0000.0001) %MON advcfl_wvel_max              =   1.0967982110501E-02
(PID.TID 0000.0001) %MON advcfl_W_hf_max              =   1.2204228164151E-02
(PID.TID 0000.0001) %MON am_eta_mean                  =  -1.8016631183675E+11
(PID.TID 0000.0001) %MON am_uZo_mean                  =   1.7985898994716E+11
(PID.TID 0000.0001) %MON am_tot_mean                  =  -3.0732188959189E+08
(PID.TID 0000.0001) %MON pe_b_mean                    =   1.9614438750120E+01
(PID.TID 0000.0001) %MON ke_max                       =   4.3959805342376E+02
(PID.TID 0000.0001) %MON ke_mean                      =   8.3228321349587E+01
(PID.TID 0000.0001) %MON ke_vol                       =   5.0986421042784E+19
(PID.TID 0000.0001) %MON vort_r_min                   =  -9.9998106422367E-06
(PID.TID 0000.0001) %MON vort_r_max                   =   9.9948865801473E-06
(PID.TID 0000.0001) %MON vort_a_mean                  =  -1.7159486216496E-20
(PID.TID 0000.0001) %MON vort_a_sd                    =   8.5010170632880E-05
(PID.TID 0000.0001) %MON vort_p_mean                  =  -1.4708113617867E-20
(PID.TID 0000.0001) %MON vort_p_sd                    =   8.4240355519092E-05
(PID.TID 0000.0001) %MON surfExpan_theta_mean         =  -4.6970910346062E+00
(PID.TID 0000.0001) %MON surfExpan_salt_mean          =  -4.6282816375579E-04
(PID.TID 0000.0001) %MON surfExpan_Heat_mean          =  -4.1767466721368E+02
(PID.TID 0000.0001) %MON En_Budget_T2PE_mean          =   5.9867513628487E+01
(PID.TID 0000.0001) // =======================================================
(PID.TID 0000.0001) // End MONITOR dynamic field statistics
(PID.TID 0000.0001) // =======================================================
 cg2d: Sum(rhs),rhsMax =  -3.72529029846191E-09  3.01721955735776E+04
(PID.TID 0000.0001)      cg2d_init_res =   6.62321504811824E+04
(PID.TID 0000.0001)      cg2d_iters(min,last) =      -1      14
(PID.TID 0000.0001)      cg2d_last_res =   1.08864094968927E-11
(PID.TID 0000.0001) // =======================================================
(PID.TID 0000.0001) // Begin MONITOR dynamic field statistics
(PID.TID 0000.0001) // =======================================================
(PID.TID 0000.0001) %MON time_tsnumber                =                    28
(PID.TID 0000.0001) %MON time_secondsf                =   1.0080000000000E+04
(PID.TID 0000.0001) %MON dynstat_eta_max              =   3.7834079044313E+03
(PID.TID 0000.0001) %MON dynstat_eta_min              =  -2.8488572315734E+03
(PID.TID 0000.0001) %MON dynstat_eta_mean             =  -8.5690789377047E-14
(PID.TID 0000.0001) %MON dynstat_eta_sd               =   2.2771580724460E+03
(PID.TID 0000.0001) %MON dynstat_eta_del2             =   7.0917573974924E-01
(PID.TID 0000.0001) %MON dynstat_uvel_max             =   3.0388990622082E+01
(PID.TID 0000.0001) %MON dynstat_uvel_min             =  -3.0387629074839E+01
(PID.TID 0000.0001) %MON dynstat_uvel_mean            =   9.8488356599786E-01
(PID.TID 0000.0001) %MON dynstat_uvel_sd              =   9.2734109038947E+00
(PID.TID 0000.0001) %MON dynstat_uvel_del2            =   1.7563985813061E-03
(PID.TID 0000.0001) %MON dynstat_vvel_max             =   3.0378715066546E+01
(PID.TID 0000.0001) %MON dynstat_vvel_min             =  -3.0347496504179E+01
(PID.TID 0000.0001) %MON dynstat_vvel_mean            =   9.9462206000713E-01
(PID.TID 0000.0001) %MON dynstat_vvel_sd              =   9.2725337378736E+00
(PID.TID 0000.0001) %MON dynstat_vvel_del2            =   1.7572296623728E-03
(PID.TID 0000.0001) %MON dynstat_wvel_max             =   2.8723944909824E-01
(PID.TID 0000.0001) %MON dynstat_wvel_min             =  -2.8295751455287E-01
(PID.TID 0000.0001) %MON dynstat_wvel_mean            =  -9.0573549022483E-17
(PID.TID 0000.0001) %MON dynstat_wvel_sd              =   9.3268309604995E-02
(PID.TID 0000.0001) %MON dynstat_wvel_del2            =   8.9047345660226E-05
(PID.TID 0000.0001) %MON dynstat_theta_max            =   1.1570682524407E+03
(PID.TID 0000.0001) %MON dynstat_theta_min            =   2.5776831451156E+02
(PID.TID 0000.0001) %MON dynstat_theta_mean           =   3.2788199530414E+02
(PID.TID 0000.0001) %MON dynstat_theta_sd             =   9.0398197217848E+01
(PID.TID 0000.0001) %MON dynstat_theta_del2           =   6.7362949423206E-04
(PID.TID 0000.0001) %MON dynstat_salt_max             =   2.0322294539745E-02
(PID.TID 0000.0001) %MON dynstat_salt_min             =   0.0000000000000E+00
(PID.TID 0000.0001) %MON dynstat_salt_mean            =   1.8905873414048E-03
(PID.TID 0000.0001) %MON dynstat_salt_sd              =   3.8900506752493E-03
(PID.TID 0000.0001) %MON dynstat_salt_del2            =   8.3208966223551E-07
(PID.TID 0000.0001) %MON trAdv_CFL_u_max              =   8.8736473501764E-02
(PID.TID 0000.0001) %MON trAdv_CFL_v_max              =   8.8707716923690E-02
(PID.TID 0000.0001) %MON trAdv_CFL_w_max              =   1.2355188082957E-02
(PID.TID 0000.0001) %MON advcfl_uvel_max              =   9.1723933908217E-02
(PID.TID 0000.0001) %MON advcfl_vvel_max              =   9.1694996836913E-02
(PID.TID 0000.0001) %MON advcfl_wvel_max              =   1.1071327802502E-02
(PID.TID 0000.0001) %MON advcfl_W_hf_max              =   1.2355188082957E-02
(PID.TID 0000.0001) %MON am_eta_mean                  =  -1.9124368949318E+11
(PID.TID 0000.0001) %MON am_uZo_mean                  =   1.9090729744408E+11
(PID.TID 0000.0001) %MON am_tot_mean                  =  -3.3639204910132E+08
(PID.TID 0000.0001) %MON pe_b_mean                    =   2.1961803071581E+01
(PID.TID 0000.0001) %MON ke_max                       =   4.6207799612984E+02
(PID.TID 0000.0001) %MON ke_mean                      =   8.6967650196664E+01
(PID.TID 0000.0001) %MON ke_vol                       =   5.0986421042785E+19
(PID.TID 0000.0001) %MON vort_r_min                   =  -1.0541185034429E-05
(PID.TID 0000.0001) %MON vort_r_max                   =   1.0535726380489E-05
(PID.TID 0000.0001) %MON vort_a_mean                  =   1.2256775868926E-19
(PID.TID 0000.0001) %MON vort_a_sd                    =   8.5060154465929E-05
(PID.TID 0000.0001) %MON vort_p_mean                  =   1.2011625239880E-19
(PID.TID 0000.0001) %MON vort_p_sd                    =   8.4242050784093E-05
(PID.TID 0000.0001) %MON surfExpan_theta_mean         =  -4.6959811978219E+00
(PID.TID 0000.0001) %MON surfExpan_salt_mean          =  -4.6508122520037E-04
(PID.TID 0000.0001) %MON surfExpan_Heat_mean          =  -4.1793878424471E+02
(PID.TID 0000.0001) %MON En_Budget_T2PE_mean          =   6.1013733779488E+01
(PID.TID 0000.0001) // =======================================================
(PID.TID 0000.0001) // End MONITOR dynamic field statistics
(PID.TID 0000.0001) // =======================================================
 cg2d: Sum(rhs),rhsMax =  -1.11758708953857E-08  3.18305751266397E+04
(PID.TID 0000.0001)      cg2d_init_res =   6.62529514687678E+04
(PID.TID 0000.0001)      cg2d_iters(min,last) =      -1      14
(PID.TID 0000.0001)      cg2d_last_res =   1.15515995124198E-11
(PID.TID 0000.0001) // =======================================================
(PID.TID 0000.0001) // Begin MONITOR dynamic field statistics
(PID.TID 0000.0001) // =======================================================
(PID.TID 0000.0001) %MON time_tsnumber                =                    29
(PID.TID 0000.0001) %MON time_secondsf                =   1.0440000000000E+04
(PID.TID 0000.0001) %MON dynstat_eta_max              =   3.9898199099821E+03
(PID.TID 0000.0001) %MON dynstat_eta_min              =  -3.0049394098710E+03
(PID.TID 0000.0001) %MON dynstat_eta_mean             =   4.2845394688523E-13
(PID.TID 0000.0001) %MON dynstat_eta_sd               =   2.4023326249863E+03
(PID.TID 0000.0001) %MON dynstat_eta_del2             =   7.2616561073888E-01
(PID.TID 0000.0001) %MON dynstat_uvel_max             =   3.1122890035311E+01
(PID.TID 0000.0001) %MON dynstat_uvel_min             =  -3.1121778402484E+01
(PID.TID 0000.0001) %MON dynstat_uvel_mean            =   1.0390971560833E+00
(PID.TID 0000.0001) %MON dynstat_uvel_sd              =   9.4608195820074E+00
(PID.TID 0000.0001) %MON dynstat_uvel_del2            =   1.7839526049808E-03
(PID.TID 0000.0001) %MON dynstat_vvel_max             =   3.1112663266602E+01
(PID.TID 0000.0001) %MON dynstat_vvel_min             =  -3.1079267657788E+01
(PID.TID 0000.0001) %MON dynstat_vvel_mean            =   1.0494535076276E+00
(PID.TID 0000.0001) %MON dynstat_vvel_sd              =   9.4598199560513E+00
(PID.TID 0000.0001) %MON dynstat_vvel_del2            =   1.7847430622316E-03
(PID.TID 0000.0001) %MON dynstat_wvel_max             =   2.9280923345161E-01
(PID.TID 0000.0001) %MON dynstat_wvel_min             =  -2.8321322515515E-01
(PID.TID 0000.0001) %MON dynstat_wvel_mean            =   1.0063727669165E-16
(PID.TID 0000.0001) %MON dynstat_wvel_sd              =   9.5366760990937E-02
(PID.TID 0000.0001) %MON dynstat_wvel_del2            =   9.0299658175014E-05
(PID.TID 0000.0001) %MON dynstat_theta_max            =   1.1571742275634E+03
(PID.TID 0000.0001) %MON dynstat_theta_min            =   2.5783820107188E+02
(PID.TID 0000.0001) %MON dynstat_theta_mean           =   3.2787980822710E+02
(PID.TID 0000.0001) %MON dynstat_theta_sd             =   9.0401137228334E+01
(PID.TID 0000.0001) %MON dynstat_theta_del2           =   6.8369021804283E-04
(PID.TID 0000.0001) %MON dynstat_salt_max             =   2.0322569262895E-02
(PID.TID 0000.0001) %MON dynstat_salt_min             =   0.0000000000000E+00
(PID.TID 0000.0001) %MON dynstat_salt_mean            =   1.8944232288185E-03
(PID.TID 0000.0001) %MON dynstat_salt_sd              =   3.8958569061213E-03
(PID.TID 0000.0001) %MON dynstat_salt_del2            =   8.3659122211793E-07
(PID.TID 0000.0001) %MON trAdv_CFL_u_max              =   9.1554342779525E-02
(PID.TID 0000.0001) %MON trAdv_CFL_v_max              =   9.1524887993410E-02
(PID.TID 0000.0001) %MON trAdv_CFL_w_max              =   1.2480280082454E-02
(PID.TID 0000.0001) %MON advcfl_uvel_max              =   9.3887497239891E-02
(PID.TID 0000.0001) %MON advcfl_vvel_max              =   9.3857045860063E-02
(PID.TID 0000.0001) %MON advcfl_wvel_max              =   1.1286008998135E-02
(PID.TID 0000.0001) %MON advcfl_W_hf_max              =   1.2480280082454E-02
(PID.TID 0000.0001) %MON am_eta_mean                  =  -2.0235435932578E+11
(PID.TID 0000.0001) %MON am_uZo_mean                  =   2.0198820051693E+11
(PID.TID 0000.0001) %MON am_tot_mean                  =  -3.6615880884637E+08
(PID.TID 0000.0001) %MON pe_b_mean                    =   2.4442628878749E+01
(PID.TID 0000.0001) %MON ke_max                       =   4.8415996969969E+02
(PID.TID 0000.0001) %MON ke_mean                      =   9.0588188164325E+01
(PID.TID 0000.0001) %MON ke_vol                       =   5.0986421042785E+19
(PID.TID 0000.0001) %MON vort_r_min                   =  -1.1078744209279E-05
(PID.TID 0000.0001) %MON vort_r_max                   =   1.1072762751644E-05
(PID.TID 0000.0001) %MON vort_a_mean                  =  -1.0295691729898E-19
(PID.TID 0000.0001) %MON vort_a_sd                    =   8.5110444108717E-05
(PID.TID 0000.0001) %MON vort_p_mean                  =  -1.0785948388483E-19
(PID.TID 0000.0001) %MON vort_p_sd                    =   8.4243802153868E-05
(PID.TID 0000.0001) %MON surfExpan_theta_mean         =  -4.6808023957681E+00
(PID.TID 0000.0001) %MON surfExpan_salt_mean          =  -4.6604995250105E-04
(PID.TID 0000.0001) %MON surfExpan_Heat_mean          =  -4.1695259390632E+02
(PID.TID 0000.0001) %MON En_Budget_T2PE_mean          =   6.2068333366447E+01
(PID.TID 0000.0001) // =======================================================
(PID.TID 0000.0001) // End MONITOR dynamic field statistics
(PID.TID 0000.0001) // =======================================================
 cg2d: Sum(rhs),rhsMax =   3.72529029846191E-09  3.34893189639106E+04
(PID.TID 0000.0001)      cg2d_init_res =   6.60799265619127E+04
(PID.TID 0000.0001)      cg2d_iters(min,last) =      -1      14
(PID.TID 0000.0001)      cg2d_last_res =   1.22394384111353E-11
(PID.TID 0000.0001) // =======================================================
(PID.TID 0000.0001) // Begin MONITOR dynamic field statistics
(PID.TID 0000.0001) // =======================================================
(PID.TID 0000.0001) %MON time_tsnumber                =                    30
(PID.TID 0000.0001) %MON time_secondsf                =   1.0800000000000E+04
(PID.TID 0000.0001) %MON dynstat_eta_max              =   4.1954532131785E+03
(PID.TID 0000.0001) %MON dynstat_eta_min              =  -3.1608933609366E+03
(PID.TID 0000.0001) %MON dynstat_eta_mean             =   5.9983552563933E-13
(PID.TID 0000.0001) %MON dynstat_eta_sd               =   2.5271811498774E+03
(PID.TID 0000.0001) %MON dynstat_eta_del2             =   7.4253099776807E-01
(PID.TID 0000.0001) %MON dynstat_uvel_max             =   3.1815647085088E+01
(PID.TID 0000.0001) %MON dynstat_uvel_min             =  -3.1814792716306E+01
(PID.TID 0000.0001) %MON dynstat_uvel_mean            =   1.0931096482070E+00
(PID.TID 0000.0001) %MON dynstat_uvel_sd              =   9.6377422962752E+00
(PID.TID 0000.0001) %MON dynstat_uvel_del2            =   1.8095528946264E-03
(PID.TID 0000.0001) %MON dynstat_vvel_max             =   3.1805458597796E+01
(PID.TID 0000.0001) %MON dynstat_vvel_min             =  -3.1769949409461E+01
(PID.TID 0000.0001) %MON dynstat_vvel_mean            =   1.1040940883982E+00
(PID.TID 0000.0001) %MON dynstat_vvel_sd              =   9.6366133539842E+00
(PID.TID 0000.0001) %MON dynstat_vvel_del2            =   1.8102918227626E-03
(PID.TID 0000.0001) %MON dynstat_wvel_max             =   2.9776527509718E-01
(PID.TID 0000.0001) %MON dynstat_wvel_min             =  -2.8279482499541E-01
(PID.TID 0000.0001) %MON dynstat_wvel_mean            =   1.0063727669165E-17
(PID.TID 0000.0001) %MON dynstat_wvel_sd              =   9.7360973078330E-02
(PID.TID 0000.0001) %MON dynstat_wvel_del2            =   9.1425543823268E-05
(PID.TID 0000.0001) %MON dynstat_theta_max            =   1.1572721332651E+03
(PID.TID 0000.0001) %MON dynstat_theta_min            =   2.5790603388367E+02
(PID.TID 0000.0001) %MON dynstat_theta_mean           =   3.2787745189101E+02
(PID.TID 0000.0001) %MON dynstat_theta_sd             =   9.0404177822257E+01
(PID.TID 0000.0001) %MON dynstat_theta_del2           =   6.9253356819482E-04
(PID.TID 0000.0001) %MON dynstat_salt_max             =   2.0455187242234E-02
(PID.TID 0000.0001) %MON dynstat_salt_min             =   0.0000000000000E+00
(PID.TID 0000.0001) %MON dynstat_salt_mean            =   1.8983968976521E-03
(PID.TID 0000.0001) %MON dynstat_salt_sd              =   3.9020808582559E-03
(PID.TID 0000.0001) %MON dynstat_salt_del2            =   8.4035894664384E-07
(PID.TID 0000.0001) %MON trAdv_CFL_u_max              =   9.4291177114022E-02
(PID.TID 0000.0001) %MON trAdv_CFL_v_max              =   9.4260997518625E-02
(PID.TID 0000.0001) %MON trAdv_CFL_w_max              =   1.2574763493243E-02
(PID.TID 0000.0001) %MON advcfl_uvel_max              =   9.5998551729212E-02
(PID.TID 0000.0001) %MON advcfl_vvel_max              =   9.5968231960410E-02
(PID.TID 0000.0001) %MON advcfl_wvel_max              =   1.1477034157921E-02
(PID.TID 0000.0001) %MON advcfl_W_hf_max              =   1.2766549934581E-02
(PID.TID 0000.0001) %MON am_eta_mean                  =  -2.1346510864383E+11
(PID.TID 0000.0001) %MON am_uZo_mean                  =   2.1306868071235E+11
(PID.TID 0000.0001) %MON am_tot_mean                  =  -3.9642793147430E+08
(PID.TID 0000.0001) %MON pe_b_mean                    =   2.7049197334377E+01
(PID.TID 0000.0001) %MON ke_max                       =   5.0577501334740E+02
(PID.TID 0000.0001) %MON ke_mean                      =   9.4082152981302E+01
(PID.TID 0000.0001) %MON ke_vol                       =   5.0986421042785E+19
(PID.TID 0000.0001) %MON vort_r_min                   =  -1.1610604569925E-05
(PID.TID 0000.0001) %MON vort_r_max                   =   1.1604116438725E-05
(PID.TID 0000.0001) %MON vort_a_mean                  =  -7.1089300039769E-20
(PID.TID 0000.0001) %MON vort_a_sd                    =   8.5160898318551E-05
(PID.TID 0000.0001) %MON vort_p_mean                  =  -7.3540551580416E-20
(PID.TID 0000.0001) %MON vort_p_sd                    =   8.4245614449087E-05
(PID.TID 0000.0001) %MON surfExpan_theta_mean         =  -4.6517236689240E+00
(PID.TID 0000.0001) %MON surfExpan_salt_mean          =  -4.6573227466007E-04
(PID.TID 0000.0001) %MON surfExpan_Heat_mean          =  -4.1472706034024E+02
(PID.TID 0000.0001) %MON En_Budget_T2PE_mean          =   6.3031155220753E+01
(PID.TID 0000.0001) // =======================================================
(PID.TID 0000.0001) // End MONITOR dynamic field statistics
(PID.TID 0000.0001) // =======================================================
 cg2d: Sum(rhs),rhsMax =   4.47034835815430E-08  3.51410099998412E+04
(PID.TID 0000.0001)      cg2d_init_res =   6.57141911381308E+04
(PID.TID 0000.0001)      cg2d_iters(min,last) =      -1      14
(PID.TID 0000.0001)      cg2d_last_res =   1.29460776663249E-11
(PID.TID 0000.0001) // =======================================================
(PID.TID 0000.0001) // Begin MONITOR dynamic field statistics
(PID.TID 0000.0001) // =======================================================
(PID.TID 0000.0001) %MON time_tsnumber                =                    31
(PID.TID 0000.0001) %MON time_secondsf                =   1.1160000000000E+04
(PID.TID 0000.0001) %MON dynstat_eta_max              =   4.3996830437942E+03
(PID.TID 0000.0001) %MON dynstat_eta_min              =  -3.3163654992742E+03
(PID.TID 0000.0001) %MON dynstat_eta_mean             =  -1.1139802619016E-12
(PID.TID 0000.0001) %MON dynstat_eta_sd               =   2.6513388374077E+03
(PID.TID 0000.0001) %MON dynstat_eta_del2             =   7.5824272150938E-01
(PID.TID 0000.0001) %MON dynstat_uvel_max             =   3.2466188697003E+01
(PID.TID 0000.0001) %MON dynstat_uvel_min             =  -3.2465590499552E+01
(PID.TID 0000.0001) %MON dynstat_uvel_mean            =   1.1467659853166E+00
(PID.TID 0000.0001) %MON dynstat_uvel_sd              =   9.8044516150086E+00
(PID.TID 0000.0001) %MON dynstat_uvel_del2            =   1.8333549194320E-03
(PID.TID 0000.0001) %MON dynstat_vvel_max             =   3.2456021567878E+01
(PID.TID 0000.0001) %MON dynstat_vvel_min             =  -3.2418462901151E+01
(PID.TID 0000.0001) %MON dynstat_vvel_mean            =   1.1583878944076E+00
(PID.TID 0000.0001) %MON dynstat_vvel_sd              =   9.8031874980898E+00
(PID.TID 0000.0001) %MON dynstat_vvel_del2            =   1.8340255241974E-03
(PID.TID 0000.0001) %MON dynstat_wvel_max             =   3.0213968629315E-01
(PID.TID 0000.0001) %MON dynstat_wvel_min             =  -2.8167394529173E-01
(PID.TID 0000.0001) %MON dynstat_wvel_mean            =   1.5598777887205E-16
(PID.TID 0000.0001) %MON dynstat_wvel_sd              =   9.9251115551678E-02
(PID.TID 0000.0001) %MON dynstat_wvel_del2            =   9.2433195093484E-05
(PID.TID 0000.0001) %MON dynstat_theta_max            =   1.1573378667465E+03
(PID.TID 0000.0001) %MON dynstat_theta_min            =   2.5797185823200E+02
(PID.TID 0000.0001) %MON dynstat_theta_mean           =   3.2787493234528E+02
(PID.TID 0000.0001) %MON dynstat_theta_sd             =   9.0407310925471E+01
(PID.TID 0000.0001) %MON dynstat_theta_del2           =   6.9932679730371E-04
(PID.TID 0000.0001) %MON dynstat_salt_max             =   2.0710794138412E-02
(PID.TID 0000.0001) %MON dynstat_salt_min             =   0.0000000000000E+00
(PID.TID 0000.0001) %MON dynstat_salt_mean            =   1.9025163619323E-03
(PID.TID 0000.0001) %MON dynstat_salt_sd              =   3.9087401903961E-03
(PID.TID 0000.0001) %MON dynstat_salt_del2            =   8.4385755166056E-07
(PID.TID 0000.0001) %MON trAdv_CFL_u_max              =   9.6942172942977E-02
(PID.TID 0000.0001) %MON trAdv_CFL_v_max              =   9.6911240425951E-02
(PID.TID 0000.0001) %MON trAdv_CFL_w_max              =   1.2645738695175E-02
(PID.TID 0000.0001) %MON advcfl_uvel_max              =   9.7983266946467E-02
(PID.TID 0000.0001) %MON advcfl_vvel_max              =   9.7953021497372E-02
(PID.TID 0000.0001) %MON advcfl_wvel_max              =   1.1645641013440E-02
(PID.TID 0000.0001) %MON advcfl_W_hf_max              =   1.3142396120405E-02
(PID.TID 0000.0001) %MON am_eta_mean                  =  -2.2454273975576E+11
(PID.TID 0000.0001) %MON am_uZo_mean                  =   2.2411575842660E+11
(PID.TID 0000.0001) %MON am_tot_mean                  =  -4.2698132916510E+08
(PID.TID 0000.0001) %MON pe_b_mean                    =   2.9772280511479E+01
(PID.TID 0000.0001) %MON ke_max                       =   5.2686056719167E+02
(PID.TID 0000.0001) %MON ke_mean                      =   9.7443345666344E+01
(PID.TID 0000.0001) %MON ke_vol                       =   5.0986421042785E+19
(PID.TID 0000.0001) %MON vort_r_min                   =  -1.2134905797597E-05
(PID.TID 0000.0001) %MON vort_r_max                   =   1.2127930703415E-05
(PID.TID 0000.0001) %MON vort_a_mean                  =   2.3042738633580E-19
(PID.TID 0000.0001) %MON vort_a_sd                    =   8.5211372228481E-05
(PID.TID 0000.0001) %MON vort_p_mean                  =   2.3287839515875E-19
(PID.TID 0000.0001) %MON vort_p_sd                    =   8.4247490243316E-05
(PID.TID 0000.0001) %MON surfExpan_theta_mean         =  -4.6089536838852E+00
(PID.TID 0000.0001) %MON surfExpan_salt_mean          =  -4.6412860995635E-04
(PID.TID 0000.0001) %MON surfExpan_Heat_mean          =  -4.1127674905515E+02
(PID.TID 0000.0001) %MON En_Budget_T2PE_mean          =   6.3902078060658E+01
(PID.TID 0000.0001) // =======================================================
(PID.TID 0000.0001) // End MONITOR dynamic field statistics
(PID.TID 0000.0001) // =======================================================
 cg2d: Sum(rhs),rhsMax =   2.23517417907715E-08  3.67780379388540E+04
(PID.TID 0000.0001)      cg2d_init_res =   6.51574835109713E+04
(PID.TID 0000.0001)      cg2d_iters(min,last) =      -1      14
(PID.TID 0000.0001)      cg2d_last_res =   1.36671029223786E-11
(PID.TID 0000.0001) // =======================================================
(PID.TID 0000.0001) // Begin MONITOR dynamic field statistics
(PID.TID 0000.0001) // =======================================================
(PID.TID 0000.0001) %MON time_tsnumber                =                    32
(PID.TID 0000.0001) %MON time_secondsf                =   1.1520000000000E+04
(PID.TID 0000.0001) %MON dynstat_eta_max              =   4.6018676031393E+03
(PID.TID 0000.0001) %MON dynstat_eta_min              =  -3.4709984401800E+03
(PID.TID 0000.0001) %MON dynstat_eta_mean             =   7.7121710439342E-13
(PID.TID 0000.0001) %MON dynstat_eta_sd               =   2.7744437412943E+03
(PID.TID 0000.0001) %MON dynstat_eta_del2             =   7.7328272293073E-01
(PID.TID 0000.0001) %MON dynstat_uvel_max             =   3.3073589591894E+01
(PID.TID 0000.0001) %MON dynstat_uvel_min             =  -3.3073243139074E+01
(PID.TID 0000.0001) %MON dynstat_uvel_mean            =   1.1999136660665E+00
(PID.TID 0000.0001) %MON dynstat_uvel_sd              =   9.9612636660187E+00
(PID.TID 0000.0001) %MON dynstat_uvel_del2            =   1.8555248193519E-03
(PID.TID 0000.0001) %MON dynstat_vvel_max             =   3.3063425044056E+01
(PID.TID 0000.0001) %MON dynstat_vvel_min             =  -3.3023874013494E+01
(PID.TID 0000.0001) %MON dynstat_vvel_mean            =   1.2121813871732E+00
(PID.TID 0000.0001) %MON dynstat_vvel_sd              =   9.9598599027861E+00
(PID.TID 0000.0001) %MON dynstat_vvel_del2            =   1.8561057989410E-03
(PID.TID 0000.0001) %MON dynstat_wvel_max             =   3.0597773070105E-01
(PID.TID 0000.0001) %MON dynstat_wvel_min             =  -2.7987914504846E-01
(PID.TID 0000.0001) %MON dynstat_wvel_mean            =   7.7993889436027E-17
(PID.TID 0000.0001) %MON dynstat_wvel_sd              =   1.0103758294409E-01
(PID.TID 0000.0001) %MON dynstat_wvel_del2            =   9.3332657889305E-05
(PID.TID 0000.0001) %MON dynstat_theta_max            =   1.1573708652108E+03
(PID.TID 0000.0001) %MON dynstat_theta_min            =   2.5803572488280E+02
(PID.TID 0000.0001) %MON dynstat_theta_mean           =   3.2787225736118E+02
(PID.TID 0000.0001) %MON dynstat_theta_sd             =   9.0410527635645E+01
(PID.TID 0000.0001) %MON dynstat_theta_del2           =   7.0361315365935E-04
(PID.TID 0000.0001) %MON dynstat_salt_max             =   2.0955875860071E-02
(PID.TID 0000.0001) %MON dynstat_salt_min             =   0.0000000000000E+00
(PID.TID 0000.0001) %MON dynstat_salt_mean            =   1.9067873083437E-03
(PID.TID 0000.0001) %MON dynstat_salt_sd              =   3.9158497983988E-03
(PID.TID 0000.0001) %MON dynstat_salt_del2            =   8.4787787102221E-07
(PID.TID 0000.0001) %MON trAdv_CFL_u_max              =   9.9502794077382E-02
(PID.TID 0000.0001) %MON trAdv_CFL_v_max              =   9.9471087890084E-02
(PID.TID 0000.0001) %MON trAdv_CFL_w_max              =   1.2693350948188E-02
(PID.TID 0000.0001) %MON advcfl_uvel_max              =   9.9838727829123E-02
(PID.TID 0000.0001) %MON advcfl_vvel_max              =   9.9808492335429E-02
(PID.TID 0000.0001) %MON advcfl_wvel_max              =   1.1793574202610E-02
(PID.TID 0000.0001) %MON advcfl_W_hf_max              =   1.3504854179129E-02
(PID.TID 0000.0001) %MON am_eta_mean                  =  -2.3555416900507E+11
(PID.TID 0000.0001) %MON am_uZo_mean                  =   2.3509659373111E+11
(PID.TID 0000.0001) %MON am_tot_mean                  =  -4.5757527395599E+08
(PID.TID 0000.0001) %MON pe_b_mean                    =   3.2601192104204E+01
(PID.TID 0000.0001) %MON ke_max                       =   5.4736100596946E+02
(PID.TID 0000.0001) %MON ke_mean                      =   1.0066737981421E+02
(PID.TID 0000.0001) %MON ke_vol                       =   5.0986421042785E+19
(PID.TID 0000.0001) %MON vort_r_min                   =  -1.2649823027661E-05
(PID.TID 0000.0001) %MON vort_r_max                   =   1.2642381644980E-05
(PID.TID 0000.0001) %MON vort_a_mean                  =   4.1673037954347E-20
(PID.TID 0000.0001) %MON vort_a_sd                    =   8.5261719629919E-05
(PID.TID 0000.0001) %MON vort_p_mean                  =   3.6770269980162E-20
(PID.TID 0000.0001) %MON vort_p_sd                    =   8.4249431649028E-05
(PID.TID 0000.0001) %MON surfExpan_theta_mean         =  -4.5527389358393E+00
(PID.TID 0000.0001) %MON surfExpan_salt_mean          =  -4.6124225517123E-04
(PID.TID 0000.0001) %MON surfExpan_Heat_mean          =  -4.0661969323834E+02
(PID.TID 0000.0001) %MON En_Budget_T2PE_mean          =   6.4681160837948E+01
(PID.TID 0000.0001) // =======================================================
(PID.TID 0000.0001) // End MONITOR dynamic field statistics
(PID.TID 0000.0001) // =======================================================
(PID.TID 0000.0001)   Exporting atmospheric surf fluxes at iter=        32
(PID.TID 0000.0001)   Importing  oceanic surface fields at iter=        32
 cg2d: Sum(rhs),rhsMax =  -4.09781932830811E-08  3.83928822823699E+04
(PID.TID 0000.0001)      cg2d_init_res =   6.44121559229679E+04
(PID.TID 0000.0001)      cg2d_iters(min,last) =      -1      14
(PID.TID 0000.0001)      cg2d_last_res =   1.43969278914366E-11
(PID.TID 0000.0001) // =======================================================
(PID.TID 0000.0001) // Begin MONITOR dynamic field statistics
(PID.TID 0000.0001) // =======================================================
(PID.TID 0000.0001) %MON time_tsnumber                =                    33
(PID.TID 0000.0001) %MON time_secondsf                =   1.1880000000000E+04
(PID.TID 0000.0001) %MON dynstat_eta_max              =   4.8013392217366E+03
(PID.TID 0000.0001) %MON dynstat_eta_min              =  -3.6244282837268E+03
(PID.TID 0000.0001) %MON dynstat_eta_mean             =  -1.1996710512787E-12
(PID.TID 0000.0001) %MON dynstat_eta_sd               =   2.8961378566537E+03
(PID.TID 0000.0001) %MON dynstat_eta_del2             =   7.8765040792420E-01
(PID.TID 0000.0001) %MON dynstat_uvel_max             =   3.3637080388465E+01
(PID.TID 0000.0001) %MON dynstat_uvel_min             =  -3.3636980527701E+01
(PID.TID 0000.0001) %MON dynstat_uvel_mean            =   1.2524035764490E+00
(PID.TID 0000.0001) %MON dynstat_uvel_sd              =   1.0108533653655E+01
(PID.TID 0000.0001) %MON dynstat_uvel_del2            =   1.8761974066225E-03
(PID.TID 0000.0001) %MON dynstat_vvel_max             =   3.3626900165763E+01
(PID.TID 0000.0001) %MON dynstat_vvel_min             =  -3.3585410355163E+01
(PID.TID 0000.0001) %MON dynstat_vvel_mean            =   1.2653236618591E+00
(PID.TID 0000.0001) %MON dynstat_vvel_sd              =   1.0106986027401E+01
(PID.TID 0000.0001) %MON dynstat_vvel_del2            =   1.8766749301985E-03
(PID.TID 0000.0001) %MON dynstat_wvel_max             =   3.0934008723686E-01
(PID.TID 0000.0001) %MON dynstat_wvel_min             =  -2.7743304648131E-01
(PID.TID 0000.0001) %MON dynstat_wvel_mean            =  -2.7172064706745E-16
(PID.TID 0000.0001) %MON dynstat_wvel_sd              =   1.0272124810387E-01
(PID.TID 0000.0001) %MON dynstat_wvel_del2            =   9.4134719284717E-05
(PID.TID 0000.0001) %MON dynstat_theta_max            =   1.1573716588392E+03
(PID.TID 0000.0001) %MON dynstat_theta_min            =   2.5809749498320E+02
(PID.TID 0000.0001) %MON dynstat_theta_mean           =   3.2786942454412E+02
(PID.TID 0000.0001) %MON dynstat_theta_sd             =   9.0413825203647E+01
(PID.TID 0000.0001) %MON dynstat_theta_del2           =   7.0525777603412E-04
(PID.TID 0000.0001) %MON dynstat_salt_max             =   2.1188855466221E-02
(PID.TID 0000.0001) %MON dynstat_salt_min             =   0.0000000000000E+00
(PID.TID 0000.0001) %MON dynstat_salt_mean            =   1.9112108825536E-03
(PID.TID 0000.0001) %MON dynstat_salt_sd              =   3.9234229487479E-03
(PID.TID 0000.0001) %MON dynstat_salt_del2            =   8.5126846898692E-07
(PID.TID 0000.0001) %MON trAdv_CFL_u_max              =   1.0196879645288E-01
(PID.TID 0000.0001) %MON trAdv_CFL_v_max              =   1.0193630550719E-01
(PID.TID 0000.0001) %MON trAdv_CFL_w_max              =   1.2723245146871E-02
(PID.TID 0000.0001) %MON advcfl_uvel_max              =   1.0156252970233E-01
(PID.TID 0000.0001) %MON advcfl_vvel_max              =   1.0153224163002E-01
(PID.TID 0000.0001) %MON advcfl_wvel_max              =   1.1923172527331E-02
(PID.TID 0000.0001) %MON advcfl_W_hf_max              =   1.3854421609967E-02
(PID.TID 0000.0001) %MON am_eta_mean                  =  -2.4646652580259E+11
(PID.TID 0000.0001) %MON am_uZo_mean                  =   2.4597859051760E+11
(PID.TID 0000.0001) %MON am_tot_mean                  =  -4.8793528499716E+08
(PID.TID 0000.0001) %MON pe_b_mean                    =   3.5523855614392E+01
(PID.TID 0000.0001) %MON ke_max                       =   5.6722797268701E+02
(PID.TID 0000.0001) %MON ke_mean                      =   1.0375158893633E+02
(PID.TID 0000.0001) %MON ke_vol                       =   5.0986421042785E+19
(PID.TID 0000.0001) %MON vort_r_min                   =  -1.3153564106285E-05
(PID.TID 0000.0001) %MON vort_r_max                   =   1.3145679872508E-05
(PID.TID 0000.0001) %MON vort_a_mean                  =   7.1089300039769E-20
(PID.TID 0000.0001) %MON vort_a_sd                    =   8.5311793484189E-05
(PID.TID 0000.0001) %MON vort_p_mean                  =   7.1089182801532E-20
(PID.TID 0000.0001) %MON vort_p_sd                    =   8.4251440339485E-05
(PID.TID 0000.0001) %MON surfExpan_theta_mean         =  -4.4833664946028E+00
(PID.TID 0000.0001) %MON surfExpan_salt_mean          =  -4.5708105075183E-04
(PID.TID 0000.0001) %MON surfExpan_Heat_mean          =  -4.0077770472783E+02
(PID.TID 0000.0001) %MON En_Budget_T2PE_mean          =   6.5368633720809E+01
(PID.TID 0000.0001) // =======================================================
(PID.TID 0000.0001) // End MONITOR dynamic field statistics
(PID.TID 0000.0001) // =======================================================
 cg2d: Sum(rhs),rhsMax =  -5.21540641784668E-08  3.99783481285795E+04
(PID.TID 0000.0001)      cg2d_init_res =   6.34811789043545E+04
(PID.TID 0000.0001)      cg2d_iters(min,last) =      -1      14
(PID.TID 0000.0001)      cg2d_last_res =   1.51287816302538E-11
(PID.TID 0000.0001) // =======================================================
(PID.TID 0000.0001) // Begin MONITOR dynamic field statistics
(PID.TID 0000.0001) // =======================================================
(PID.TID 0000.0001) %MON time_tsnumber                =                    34
(PID.TID 0000.0001) %MON time_secondsf                =   1.2240000000000E+04
(PID.TID 0000.0001) %MON dynstat_eta_max              =   4.9974564506915E+03
(PID.TID 0000.0001) %MON dynstat_eta_min              =  -3.7762838157380E+03
(PID.TID 0000.0001) %MON dynstat_eta_mean             =   1.9708881556721E-12
(PID.TID 0000.0001) %MON dynstat_eta_sd               =   3.0160682074483E+03
(PID.TID 0000.0001) %MON dynstat_eta_del2             =   8.0136263901243E-01
(PID.TID 0000.0001) %MON dynstat_uvel_max             =   3.4156049440860E+01
(PID.TID 0000.0001) %MON dynstat_uvel_min             =  -3.4156187865709E+01
(PID.TID 0000.0001) %MON dynstat_uvel_mean            =   1.3040899222533E+00
(PID.TID 0000.0001) %MON dynstat_uvel_sd              =   1.0246650621263E+01
(PID.TID 0000.0001) %MON dynstat_uvel_del2            =   1.8955371517232E-03
(PID.TID 0000.0001) %MON dynstat_vvel_max             =   3.4145836300353E+01
(PID.TID 0000.0001) %MON dynstat_vvel_min             =  -3.4102450877346E+01
(PID.TID 0000.0001) %MON dynstat_vvel_mean            =   1.3176673806422E+00
(PID.TID 0000.0001) %MON dynstat_vvel_sd              =   1.0244955914934E+01
(PID.TID 0000.0001) %MON dynstat_vvel_del2            =   1.8958936806987E-03
(PID.TID 0000.0001) %MON dynstat_wvel_max             =   3.1230187480649E-01
(PID.TID 0000.0001) %MON dynstat_wvel_min             =  -2.7435192686152E-01
(PID.TID 0000.0001) %MON dynstat_wvel_mean            =  -1.1824880011269E-16
(PID.TID 0000.0001) %MON dynstat_wvel_sd              =   1.0430336012705E-01
(PID.TID 0000.0001) %MON dynstat_wvel_del2            =   9.4850366187371E-05
(PID.TID 0000.0001) %MON dynstat_theta_max            =   1.1573482150254E+03
(PID.TID 0000.0001) %MON dynstat_theta_min            =   2.5815737328932E+02
(PID.TID 0000.0001) %MON dynstat_theta_mean           =   3.2786644744693E+02
(PID.TID 0000.0001) %MON dynstat_theta_sd             =   9.0417192356508E+01
(PID.TID 0000.0001) %MON dynstat_theta_del2           =   7.0452013540547E-04
(PID.TID 0000.0001) %MON dynstat_salt_max             =   2.1408162271170E-02
(PID.TID 0000.0001) %MON dynstat_salt_min             =   0.0000000000000E+00
(PID.TID 0000.0001) %MON dynstat_salt_mean            =   1.9157993020000E-03
(PID.TID 0000.0001) %MON dynstat_salt_sd              =   3.9314699336993E-03
(PID.TID 0000.0001) %MON dynstat_salt_del2            =   8.5518566286132E-07
(PID.TID 0000.0001) %MON trAdv_CFL_u_max              =   1.0433623568910E-01
(PID.TID 0000.0001) %MON trAdv_CFL_v_max              =   1.0430296094756E-01
(PID.TID 0000.0001) %MON trAdv_CFL_w_max              =   1.2813680144767E-02
(PID.TID 0000.0001) %MON advcfl_uvel_max              =   1.0315279604186E-01
(PID.TID 0000.0001) %MON advcfl_vvel_max              =   1.0312240228997E-01
(PID.TID 0000.0001) %MON advcfl_wvel_max              =   1.2044322587310E-02
(PID.TID 0000.0001) %MON advcfl_W_hf_max              =   1.4162446260080E-02
(PID.TID 0000.0001) %MON am_eta_mean                  =  -2.5724725167294E+11
(PID.TID 0000.0001) %MON am_uZo_mean                  =   2.5672948684591E+11
(PID.TID 0000.0001) %MON am_tot_mean                  =  -5.1776482702756E+08
(PID.TID 0000.0001) %MON pe_b_mean                    =   3.8526889977313E+01
(PID.TID 0000.0001) %MON ke_max                       =   5.8642053112702E+02
(PID.TID 0000.0001) %MON ke_mean                      =   1.0669493425222E+02
(PID.TID 0000.0001) %MON ke_vol                       =   5.0986421042785E+19
(PID.TID 0000.0001) %MON vort_r_min                   =  -1.3644376548954E-05
(PID.TID 0000.0001) %MON vort_r_max                   =   1.3636076610748E-05
(PID.TID 0000.0001) %MON vort_a_mean                  =  -1.0295691729898E-19
(PID.TID 0000.0001) %MON vort_a_sd                    =   8.5361447581497E-05
(PID.TID 0000.0001) %MON vort_p_mean                  =  -1.0785944069773E-19
(PID.TID 0000.0001) %MON vort_p_sd                    =   8.4253518680198E-05
(PID.TID 0000.0001) %MON surfExpan_theta_mean         =  -4.4011547218649E+00
(PID.TID 0000.0001) %MON surfExpan_salt_mean          =  -4.5165123163204E-04
(PID.TID 0000.0001) %MON surfExpan_Heat_mean          =  -3.9377548529440E+02
(PID.TID 0000.0001) %MON En_Budget_T2PE_mean          =   6.5964785240993E+01
(PID.TID 0000.0001) // =======================================================
(PID.TID 0000.0001) // End MONITOR dynamic field statistics
(PID.TID 0000.0001) // =======================================================
 cg2d: Sum(rhs),rhsMax =   2.60770320892334E-08  4.15277120661892E+04
(PID.TID 0000.0001)      cg2d_init_res =   6.23681173993207E+04
(PID.TID 0000.0001)      cg2d_iters(min,last) =      -1      14
(PID.TID 0000.0001)      cg2d_last_res =   1.58544238144612E-11
(PID.TID 0000.0001) // =======================================================
(PID.TID 0000.0001) // Begin MONITOR dynamic field statistics
(PID.TID 0000.0001) // =======================================================
(PID.TID 0000.0001) %MON time_tsnumber                =                    35
(PID.TID 0000.0001) %MON time_secondsf                =   1.2600000000000E+04
(PID.TID 0000.0001) %MON dynstat_eta_max              =   5.1897860325778E+03
(PID.TID 0000.0001) %MON dynstat_eta_min              =  -3.9261876591291E+03
(PID.TID 0000.0001) %MON dynstat_eta_mean             =  -1.1996710512787E-12
(PID.TID 0000.0001) %MON dynstat_eta_sd               =   3.1338878657895E+03
(PID.TID 0000.0001) %MON dynstat_eta_del2             =   8.1445330475788E-01
(PID.TID 0000.0001) %MON dynstat_uvel_max             =   3.4630032406810E+01
(PID.TID 0000.0001) %MON dynstat_uvel_min             =  -3.4630402239788E+01
(PID.TID 0000.0001) %MON dynstat_uvel_mean            =   1.3548306510763E+00
(PID.TID 0000.0001) %MON dynstat_uvel_sd              =   1.0376032269608E+01
(PID.TID 0000.0001) %MON dynstat_uvel_del2            =   1.9136735407691E-03
(PID.TID 0000.0001) %MON dynstat_vvel_max             =   3.4619772593620E+01
(PID.TID 0000.0001) %MON dynstat_vvel_min             =  -3.4574540506546E+01
(PID.TID 0000.0001) %MON dynstat_vvel_mean            =   1.3690690785231E+00
(PID.TID 0000.0001) %MON dynstat_vvel_sd              =   1.0374186975568E+01
(PID.TID 0000.0001) %MON dynstat_vvel_del2            =   1.9138822997515E-03
(PID.TID 0000.0001) %MON dynstat_wvel_max             =   3.1494602586738E-01
(PID.TID 0000.0001) %MON dynstat_wvel_min             =  -2.7065366577743E-01
(PID.TID 0000.0001) %MON dynstat_wvel_mean            =   5.0318638345824E-18
(PID.TID 0000.0001) %MON dynstat_wvel_sd              =   1.0578572915330E-01
(PID.TID 0000.0001) %MON dynstat_wvel_del2            =   9.5490051327274E-05
(PID.TID 0000.0001) %MON dynstat_theta_max            =   1.1573334075618E+03
(PID.TID 0000.0001) %MON dynstat_theta_min            =   2.5821546007020E+02
(PID.TID 0000.0001) %MON dynstat_theta_mean           =   3.2786333617847E+02
(PID.TID 0000.0001) %MON dynstat_theta_sd             =   9.0420619677735E+01
(PID.TID 0000.0001) %MON dynstat_theta_del2           =   7.0194818613310E-04
(PID.TID 0000.0001) %MON dynstat_salt_max             =   2.1618759694714E-02
(PID.TID 0000.0001) %MON dynstat_salt_min             =   0.0000000000000E+00
(PID.TID 0000.0001) %MON dynstat_salt_mean            =   1.9205551469888E-03
(PID.TID 0000.0001) %MON dynstat_salt_sd              =   3.9399862967458E-03
(PID.TID 0000.0001) %MON dynstat_salt_del2            =   8.5867454114293E-07
(PID.TID 0000.0001) %MON trAdv_CFL_u_max              =   1.0660147991673E-01
(PID.TID 0000.0001) %MON trAdv_CFL_v_max              =   1.0656742952088E-01
(PID.TID 0000.0001) %MON trAdv_CFL_w_max              =   1.2893372630839E-02
(PID.TID 0000.0001) %MON advcfl_uvel_max              =   1.0460815480024E-01
(PID.TID 0000.0001) %MON advcfl_vvel_max              =   1.0457762206462E-01
(PID.TID 0000.0001) %MON advcfl_wvel_max              =   1.2186548969513E-02
(PID.TID 0000.0001) %MON advcfl_W_hf_max              =   1.4447261636471E-02
(PID.TID 0000.0001) %MON am_eta_mean                  =  -2.6786420189712E+11
(PID.TID 0000.0001) %MON am_uZo_mean                  =   2.6731746573872E+11
(PID.TID 0000.0001) %MON am_tot_mean                  =  -5.4673615840295E+08
(PID.TID 0000.0001) %MON pe_b_mean                    =   4.1595709921745E+01
(PID.TID 0000.0001) %MON ke_max                       =   6.0490503039635E+02
(PID.TID 0000.0001) %MON ke_mean                      =   1.0949785864941E+02
(PID.TID 0000.0001) %MON ke_vol                       =   5.0986421042785E+19
(PID.TID 0000.0001) %MON vort_r_min                   =  -1.4120550413999E-05
(PID.TID 0000.0001) %MON vort_r_max                   =   1.4111867054445E-05
(PID.TID 0000.0001) %MON vort_a_mean                  =   8.8248786256265E-20
(PID.TID 0000.0001) %MON vort_a_sd                    =   8.5410534992592E-05
(PID.TID 0000.0001) %MON vort_p_mean                  =   9.0699976395807E-20
(PID.TID 0000.0001) %MON vort_p_sd                    =   8.4255667704338E-05
(PID.TID 0000.0001) %MON surfExpan_theta_mean         =  -4.3064557789726E+00
(PID.TID 0000.0001) %MON surfExpan_salt_mean          =  -4.4496440186026E-04
(PID.TID 0000.0001) %MON surfExpan_Heat_mean          =  -3.8564100898773E+02
(PID.TID 0000.0001) %MON En_Budget_T2PE_mean          =   6.6470001223543E+01
(PID.TID 0000.0001) // =======================================================
(PID.TID 0000.0001) // End MONITOR dynamic field statistics
(PID.TID 0000.0001) // =======================================================
 cg2d: Sum(rhs),rhsMax =   3.72529029846191E-08  4.30347784274040E+04
(PID.TID 0000.0001)      cg2d_init_res =   6.10771412535605E+04
(PID.TID 0000.0001)      cg2d_iters(min,last) =      -1      14
(PID.TID 0000.0001)      cg2d_last_res =   1.65638957834058E-11
(PID.TID 0000.0001) // =======================================================
(PID.TID 0000.0001) // Begin MONITOR dynamic field statistics
(PID.TID 0000.0001) // =======================================================
(PID.TID 0000.0001) %MON time_tsnumber                =                    36
(PID.TID 0000.0001) %MON time_secondsf                =   1.2960000000000E+04
(PID.TID 0000.0001) %MON dynstat_eta_max              =   5.3772792485762E+03
(PID.TID 0000.0001) %MON dynstat_eta_min              =  -4.0737591157158E+03
(PID.TID 0000.0001) %MON dynstat_eta_mean             =   1.7138157875409E-13
(PID.TID 0000.0001) %MON dynstat_eta_sd               =   3.2492569568744E+03
(PID.TID 0000.0001) %MON dynstat_eta_del2             =   8.2696884441499E-01
(PID.TID 0000.0001) %MON dynstat_uvel_max             =   3.5058702918159E+01
(PID.TID 0000.0001) %MON dynstat_uvel_min             =  -3.5059302798302E+01
(PID.TID 0000.0001) %MON dynstat_uvel_mean            =   1.4044877428410E+00
(PID.TID 0000.0001) %MON dynstat_uvel_sd              =   1.0497134943208E+01
(PID.TID 0000.0001) %MON dynstat_uvel_del2            =   1.9307020897921E-03
(PID.TID 0000.0001) %MON dynstat_vvel_max             =   3.5048388319733E+01
(PID.TID 0000.0001) %MON dynstat_vvel_min             =  -3.5001362947867E+01
(PID.TID 0000.0001) %MON dynstat_vvel_mean            =   1.4193892321731E+00
(PID.TID 0000.0001) %MON dynstat_vvel_sd              =   1.0495136506052E+01
(PID.TID 0000.0001) %MON dynstat_vvel_del2            =   1.9307775017509E-03
(PID.TID 0000.0001) %MON dynstat_wvel_max             =   3.1736087018714E-01
(PID.TID 0000.0001) %MON dynstat_wvel_min             =  -2.6634759970753E-01
(PID.TID 0000.0001) %MON dynstat_wvel_mean            =   4.0254910676659E-17
(PID.TID 0000.0001) %MON dynstat_wvel_sd              =   1.0717044048430E-01
(PID.TID 0000.0001) %MON dynstat_wvel_del2            =   9.6066572896263E-05
(PID.TID 0000.0001) %MON dynstat_theta_max            =   1.1572906588671E+03
(PID.TID 0000.0001) %MON dynstat_theta_min            =   2.5827176911818E+02
(PID.TID 0000.0001) %MON dynstat_theta_mean           =   3.2786009927996E+02
(PID.TID 0000.0001) %MON dynstat_theta_sd             =   9.0424099263009E+01
(PID.TID 0000.0001) %MON dynstat_theta_del2           =   6.9825078251049E-04
(PID.TID 0000.0001) %MON dynstat_salt_max             =   2.1811889362906E-02
(PID.TID 0000.0001) %MON dynstat_salt_min             =   0.0000000000000E+00
(PID.TID 0000.0001) %MON dynstat_salt_mean            =   1.9254800235242E-03
(PID.TID 0000.0001) %MON dynstat_salt_sd              =   3.9489627303861E-03
(PID.TID 0000.0001) %MON dynstat_salt_del2            =   8.6074592214483E-07
(PID.TID 0000.0001) %MON trAdv_CFL_u_max              =   1.0876120804057E-01
(PID.TID 0000.0001) %MON trAdv_CFL_v_max              =   1.0872639417498E-01
(PID.TID 0000.0001) %MON trAdv_CFL_w_max              =   1.2966908442864E-02
(PID.TID 0000.0001) %MON advcfl_uvel_max              =   1.0592772166040E-01
(PID.TID 0000.0001) %MON advcfl_vvel_max              =   1.0589701056462E-01
(PID.TID 0000.0001) %MON advcfl_wvel_max              =   1.2439278753793E-02
(PID.TID 0000.0001) %MON advcfl_W_hf_max              =   1.4720659028692E-02
(PID.TID 0000.0001) %MON am_eta_mean                  =  -2.7828574166445E+11
(PID.TID 0000.0001) %MON am_uZo_mean                  =   2.7771124550309E+11
(PID.TID 0000.0001) %MON am_tot_mean                  =  -5.7449616136395E+08
(PID.TID 0000.0001) %MON pe_b_mean                    =   4.4714641189555E+01
(PID.TID 0000.0001) %MON ke_max                       =   6.2265486879127E+02
(PID.TID 0000.0001) %MON ke_mean                      =   1.1216249195439E+02
(PID.TID 0000.0001) %MON ke_vol                       =   5.0986421042785E+19
(PID.TID 0000.0001) %MON vort_r_min                   =  -1.4580422338652E-05
(PID.TID 0000.0001) %MON vort_r_max                   =   1.4571399191703E-05
(PID.TID 0000.0001) %MON vort_a_mean                  =   8.5797431082480E-20
(PID.TID 0000.0001) %MON vort_a_sd                    =   8.5458910456680E-05
(PID.TID 0000.0001) %MON vort_p_mean                  =   8.8248617867798E-20
(PID.TID 0000.0001) %MON vort_p_sd                    =   8.4257888916878E-05
(PID.TID 0000.0001) %MON surfExpan_theta_mean         =  -4.1996548554422E+00
(PID.TID 0000.0001) %MON surfExpan_salt_mean          =  -4.3703402968513E-04
(PID.TID 0000.0001) %MON surfExpan_Heat_mean          =  -3.7640543001907E+02
(PID.TID 0000.0001) %MON En_Budget_T2PE_mean          =   6.6884894336197E+01
(PID.TID 0000.0001) // =======================================================
(PID.TID 0000.0001) // End MONITOR dynamic field statistics
(PID.TID 0000.0001) // =======================================================
 cg2d: Sum(rhs),rhsMax =  -1.11758708953857E-08  4.44938484204367E+04
(PID.TID 0000.0001)      cg2d_init_res =   5.96130389059389E+04
(PID.TID 0000.0001)      cg2d_iters(min,last) =      -1      14
(PID.TID 0000.0001)      cg2d_last_res =   1.72457628137584E-11
(PID.TID 0000.0001) // =======================================================
(PID.TID 0000.0001) // Begin MONITOR dynamic field statistics
(PID.TID 0000.0001) // =======================================================
(PID.TID 0000.0001) %MON time_tsnumber                =                    37
(PID.TID 0000.0001) %MON time_secondsf                =   1.3320000000000E+04
(PID.TID 0000.0001) %MON dynstat_eta_max              =   5.5591555144493E+03
(PID.TID 0000.0001) %MON dynstat_eta_min              =  -4.2186181689552E+03
(PID.TID 0000.0001) %MON dynstat_eta_mean             =  -1.1996710512787E-12
(PID.TID 0000.0001) %MON dynstat_eta_sd               =   3.3618436417601E+03
(PID.TID 0000.0001) %MON dynstat_eta_del2             =   8.3896180479221E-01
(PID.TID 0000.0001) %MON dynstat_uvel_max             =   3.5441866342319E+01
(PID.TID 0000.0001) %MON dynstat_uvel_min             =  -3.5442699260096E+01
(PID.TID 0000.0001) %MON dynstat_uvel_mean            =   1.4529273991418E+00
(PID.TID 0000.0001) %MON dynstat_uvel_sd              =   1.0610429562506E+01
(PID.TID 0000.0001) %MON dynstat_uvel_del2            =   1.9467347282379E-03
(PID.TID 0000.0001) %MON dynstat_vvel_max             =   3.5431489677061E+01
(PID.TID 0000.0001) %MON dynstat_vvel_min             =  -3.5386045763191E+01
(PID.TID 0000.0001) %MON dynstat_vvel_mean            =   1.4684929014373E+00
(PID.TID 0000.0001) %MON dynstat_vvel_sd              =   1.0608275062125E+01
(PID.TID 0000.0001) %MON dynstat_vvel_del2            =   1.9466501682929E-03
(PID.TID 0000.0001) %MON dynstat_wvel_max             =   3.1981938062377E-01
(PID.TID 0000.0001) %MON dynstat_wvel_min             =  -2.6143874751185E-01
(PID.TID 0000.0001) %MON dynstat_wvel_mean            =   1.8617896187955E-16
(PID.TID 0000.0001) %MON dynstat_wvel_sd              =   1.0846006486306E-01
(PID.TID 0000.0001) %MON dynstat_wvel_del2            =   9.6588499502368E-05
(PID.TID 0000.0001) %MON dynstat_theta_max            =   1.1574053231440E+03
(PID.TID 0000.0001) %MON dynstat_theta_min            =   2.5832628114124E+02
(PID.TID 0000.0001) %MON dynstat_theta_mean           =   3.2785674242820E+02
(PID.TID 0000.0001) %MON dynstat_theta_sd             =   9.0427626133896E+01
(PID.TID 0000.0001) %MON dynstat_theta_del2           =   6.9415834494496E-04
(PID.TID 0000.0001) %MON dynstat_salt_max             =   2.1974656732598E-02
(PID.TID 0000.0001) %MON dynstat_salt_min             =   0.0000000000000E+00
(PID.TID 0000.0001) %MON dynstat_salt_mean            =   1.9305755593710E-03
(PID.TID 0000.0001) %MON dynstat_salt_sd              =   3.9584017948964E-03
(PID.TID 0000.0001) %MON dynstat_salt_del2            =   8.6086943439167E-07
(PID.TID 0000.0001) %MON trAdv_CFL_u_max              =   1.1081240587992E-01
(PID.TID 0000.0001) %MON trAdv_CFL_v_max              =   1.1077683926813E-01
(PID.TID 0000.0001) %MON trAdv_CFL_w_max              =   1.3039131367714E-02
(PID.TID 0000.0001) %MON advcfl_uvel_max              =   1.0711106727628E-01
(PID.TID 0000.0001) %MON advcfl_vvel_max              =   1.0708013423445E-01
(PID.TID 0000.0001) %MON advcfl_wvel_max              =   1.2691906271362E-02
(PID.TID 0000.0001) %MON advcfl_W_hf_max              =   1.4985677631242E-02
(PID.TID 0000.0001) %MON am_eta_mean                  =  -2.8848084242510E+11
(PID.TID 0000.0001) %MON am_uZo_mean                  =   2.8788017497409E+11
(PID.TID 0000.0001) %MON am_tot_mean                  =  -6.0066745101239E+08
(PID.TID 0000.0001) %MON pe_b_mean                    =   4.7867049272792E+01
(PID.TID 0000.0001) %MON ke_max                       =   6.3965021045938E+02
(PID.TID 0000.0001) %MON ke_mean                      =   1.1469209236170E+02
(PID.TID 0000.0001) %MON ke_vol                       =   5.0986421042785E+19
(PID.TID 0000.0001) %MON vort_r_min                   =  -1.5022379211627E-05
(PID.TID 0000.0001) %MON vort_r_max                   =   1.5013073893200E-05
(PID.TID 0000.0001) %MON vort_a_mean                  =   1.1766504834169E-19
(PID.TID 0000.0001) %MON vort_a_sd                    =   8.5506427547630E-05
(PID.TID 0000.0001) %MON vort_p_mean                  =   1.1766481313742E-19
(PID.TID 0000.0001) %MON vort_p_sd                    =   8.4260181050798E-05
(PID.TID 0000.0001) %MON surfExpan_theta_mean         =  -4.0811692334062E+00
(PID.TID 0000.0001) %MON surfExpan_salt_mean          =  -4.2787496540887E-04
(PID.TID 0000.0001) %MON surfExpan_Heat_mean          =  -3.6610304309099E+02
(PID.TID 0000.0001) %MON En_Budget_T2PE_mean          =   6.7210133128871E+01
(PID.TID 0000.0001) // =======================================================
(PID.TID 0000.0001) // End MONITOR dynamic field statistics
(PID.TID 0000.0001) // =======================================================
 cg2d: Sum(rhs),rhsMax =  -1.86264514923096E-08  4.58996230871902E+04
(PID.TID 0000.0001)      cg2d_init_res =   5.79812313984711E+04
(PID.TID 0000.0001)      cg2d_iters(min,last) =      -1      14
(PID.TID 0000.0001)      cg2d_last_res =   1.78879696433802E-11
(PID.TID 0000.0001) // =======================================================
(PID.TID 0000.0001) // Begin MONITOR dynamic field statistics
(PID.TID 0000.0001) // =======================================================
(PID.TID 0000.0001) %MON time_tsnumber                =                    38
(PID.TID 0000.0001) %MON time_secondsf                =   1.3680000000000E+04
(PID.TID 0000.0001) %MON dynstat_eta_max              =   5.7346383416157E+03
(PID.TID 0000.0001) %MON dynstat_eta_min              =  -4.3603900587669E+03
(PID.TID 0000.0001) %MON dynstat_eta_mean             =  -2.0565789450491E-12
(PID.TID 0000.0001) %MON dynstat_eta_sd               =   3.4713250758171E+03
(PID.TID 0000.0001) %MON dynstat_eta_del2             =   8.5048314142335E-01
(PID.TID 0000.0001) %MON dynstat_uvel_max             =   3.5884067921475E+01
(PID.TID 0000.0001) %MON dynstat_uvel_min             =  -3.5880165180872E+01
(PID.TID 0000.0001) %MON dynstat_uvel_mean            =   1.5000207732653E+00
(PID.TID 0000.0001) %MON dynstat_uvel_sd              =   1.0716424992114E+01
(PID.TID 0000.0001) %MON dynstat_uvel_del2            =   1.9619102586486E-03
(PID.TID 0000.0001) %MON dynstat_vvel_max             =   3.5869188736737E+01
(PID.TID 0000.0001) %MON dynstat_vvel_min             =  -3.5872359883543E+01
(PID.TID 0000.0001) %MON dynstat_vvel_mean            =   1.5162498412715E+00
(PID.TID 0000.0001) %MON dynstat_vvel_sd              =   1.0714111896627E+01
(PID.TID 0000.0001) %MON dynstat_vvel_del2            =   1.9616461898224E-03
(PID.TID 0000.0001) %MON dynstat_wvel_max             =   3.2302083403105E-01
(PID.TID 0000.0001) %MON dynstat_wvel_min             =  -2.5592125264138E-01
(PID.TID 0000.0001) %MON dynstat_wvel_mean            =   1.5347184695476E-16
(PID.TID 0000.0001) %MON dynstat_wvel_sd              =   1.0965752172421E-01
(PID.TID 0000.0001) %MON dynstat_wvel_del2            =   9.7064621822122E-05
(PID.TID 0000.0001) %MON dynstat_theta_max            =   1.1575592583665E+03
(PID.TID 0000.0001) %MON dynstat_theta_min            =   2.5837924257967E+02
(PID.TID 0000.0001) %MON dynstat_theta_mean           =   3.2785327350949E+02
(PID.TID 0000.0001) %MON dynstat_theta_sd             =   9.0431193964608E+01
(PID.TID 0000.0001) %MON dynstat_theta_del2           =   6.9034672223405E-04
(PID.TID 0000.0001) %MON dynstat_salt_max             =   2.2106067419192E-02
(PID.TID 0000.0001) %MON dynstat_salt_min             =   0.0000000000000E+00
(PID.TID 0000.0001) %MON dynstat_salt_mean            =   1.9358419379321E-03
(PID.TID 0000.0001) %MON dynstat_salt_sd              =   3.9682990069764E-03
(PID.TID 0000.0001) %MON dynstat_salt_del2            =   8.5855247854925E-07
(PID.TID 0000.0001) %MON trAdv_CFL_u_max              =   1.1275235892638E-01
(PID.TID 0000.0001) %MON trAdv_CFL_v_max              =   1.1271604894258E-01
(PID.TID 0000.0001) %MON trAdv_CFL_w_max              =   1.3114791393216E-02
(PID.TID 0000.0001) %MON advcfl_uvel_max              =   1.0815818057991E-01
(PID.TID 0000.0001) %MON advcfl_vvel_max              =   1.0812698258599E-01
(PID.TID 0000.0001) %MON advcfl_wvel_max              =   1.2897575422998E-02
(PID.TID 0000.0001) %MON advcfl_W_hf_max              =   1.5244136188931E-02
(PID.TID 0000.0001) %MON am_eta_mean                  =  -2.9841917737786E+11
(PID.TID 0000.0001) %MON am_uZo_mean                  =   2.9779433243220E+11
(PID.TID 0000.0001) %MON am_tot_mean                  =  -6.2484494566107E+08
(PID.TID 0000.0001) %MON pe_b_mean                    =   5.1035480293664E+01
(PID.TID 0000.0001) %MON ke_max                       =   6.5587764146550E+02
(PID.TID 0000.0001) %MON ke_mean                      =   1.1709151712327E+02
(PID.TID 0000.0001) %MON ke_vol                       =   5.0986421042785E+19
(PID.TID 0000.0001) %MON vort_r_min                   =  -1.5444862475283E-05
(PID.TID 0000.0001) %MON vort_r_max                   =   1.5435348936127E-05
(PID.TID 0000.0001) %MON vort_a_mean                  =  -1.7404621733875E-19
(PID.TID 0000.0001) %MON vort_a_sd                    =   8.5552945122361E-05
(PID.TID 0000.0001) %MON vort_p_mean                  =  -1.7404585323388E-19
(PID.TID 0000.0001) %MON vort_p_sd                    =   8.4262545732337E-05
(PID.TID 0000.0001) %MON surfExpan_theta_mean         =  -3.9514440265611E+00
(PID.TID 0000.0001) %MON surfExpan_salt_mean          =  -4.1750505189312E-04
(PID.TID 0000.0001) %MON surfExpan_Heat_mean          =  -3.5477090632923E+02
(PID.TID 0000.0001) %MON En_Budget_T2PE_mean          =   6.7446605505857E+01
(PID.TID 0000.0001) // =======================================================
(PID.TID 0000.0001) // End MONITOR dynamic field statistics
(PID.TID 0000.0001) // =======================================================
 cg2d: Sum(rhs),rhsMax =  -1.11758708953857E-08  4.72470705485144E+04
(PID.TID 0000.0001)      cg2d_init_res =   5.61877776717468E+04
(PID.TID 0000.0001)      cg2d_iters(min,last) =      -1      14
(PID.TID 0000.0001)      cg2d_last_res =   1.84779977693333E-11
(PID.TID 0000.0001) // =======================================================
(PID.TID 0000.0001) // Begin MONITOR dynamic field statistics
(PID.TID 0000.0001) // =======================================================
(PID.TID 0000.0001) %MON time_tsnumber                =                    39
(PID.TID 0000.0001) %MON time_secondsf                =   1.4040000000000E+04
(PID.TID 0000.0001) %MON dynstat_eta_max              =   5.9031629589453E+03
(PID.TID 0000.0001) %MON dynstat_eta_min              =  -4.4987096960942E+03
(PID.TID 0000.0001) %MON dynstat_eta_mean             =   3.4276315750819E-13
(PID.TID 0000.0001) %MON dynstat_eta_sd               =   3.5773883359356E+03
(PID.TID 0000.0001) %MON dynstat_eta_del2             =   8.6157983916744E-01
(PID.TID 0000.0001) %MON dynstat_uvel_max             =   3.6329496667703E+01
(PID.TID 0000.0001) %MON dynstat_uvel_min             =  -3.6325572166425E+01
(PID.TID 0000.0001) %MON dynstat_uvel_mean            =   1.5456435940255E+00
(PID.TID 0000.0001) %MON dynstat_uvel_sd              =   1.0815635276528E+01
(PID.TID 0000.0001) %MON dynstat_uvel_del2            =   1.9763296326414E-03
(PID.TID 0000.0001) %MON dynstat_vvel_max             =   3.6314402388437E+01
(PID.TID 0000.0001) %MON dynstat_vvel_min             =  -3.6317549308746E+01
(PID.TID 0000.0001) %MON dynstat_vvel_mean            =   1.5625344607925E+00
(PID.TID 0000.0001) %MON dynstat_vvel_sd              =   1.0813162975129E+01
(PID.TID 0000.0001) %MON dynstat_vvel_del2            =   1.9758749733575E-03
(PID.TID 0000.0001) %MON dynstat_wvel_max             =   3.2623438110990E-01
(PID.TID 0000.0001) %MON dynstat_wvel_min             =  -2.4978300567739E-01
(PID.TID 0000.0001) %MON dynstat_wvel_mean            =  -6.5414229849571E-17
(PID.TID 0000.0001) %MON dynstat_wvel_sd              =   1.1076618372675E-01
(PID.TID 0000.0001) %MON dynstat_wvel_del2            =   9.7502778618837E-05
(PID.TID 0000.0001) %MON dynstat_theta_max            =   1.1577233231215E+03
(PID.TID 0000.0001) %MON dynstat_theta_min            =   2.5843072609262E+02
(PID.TID 0000.0001) %MON dynstat_theta_mean           =   3.2784969922942E+02
(PID.TID 0000.0001) %MON dynstat_theta_sd             =   9.0434798023921E+01
(PID.TID 0000.0001) %MON dynstat_theta_del2           =   6.8746449667997E-04
(PID.TID 0000.0001) %MON dynstat_salt_max             =   2.2214534760185E-02
(PID.TID 0000.0001) %MON dynstat_salt_min             =   2.4964701552583-239
(PID.TID 0000.0001) %MON dynstat_salt_mean            =   1.9412789548334E-03
(PID.TID 0000.0001) %MON dynstat_salt_sd              =   3.9786405939380E-03
(PID.TID 0000.0001) %MON dynstat_salt_del2            =   8.5336226174783E-07
(PID.TID 0000.0001) %MON trAdv_CFL_u_max              =   1.1457865733276E-01
(PID.TID 0000.0001) %MON trAdv_CFL_v_max              =   1.1454160537346E-01
(PID.TID 0000.0001) %MON trAdv_CFL_w_max              =   1.3198253073820E-02
(PID.TID 0000.0001) %MON advcfl_uvel_max              =   1.0906966424400E-01
(PID.TID 0000.0001) %MON advcfl_vvel_max              =   1.0903793108297E-01
(PID.TID 0000.0001) %MON advcfl_wvel_max              =   1.3104938233140E-02
(PID.TID 0000.0001) %MON advcfl_W_hf_max              =   1.5499310105786E-02
(PID.TID 0000.0001) %MON am_eta_mean                  =  -3.0807121559318E+11
(PID.TID 0000.0001) %MON am_uZo_mean                  =   3.0742462217586E+11
(PID.TID 0000.0001) %MON am_tot_mean                  =  -6.4659341731799E+08
(PID.TID 0000.0001) %MON pe_b_mean                    =   5.4201812370334E+01
(PID.TID 0000.0001) %MON ke_max                       =   6.7132970112226E+02
(PID.TID 0000.0001) %MON ke_mean                      =   1.1936649401134E+02
(PID.TID 0000.0001) %MON ke_vol                       =   5.0986421042784E+19
(PID.TID 0000.0001) %MON vort_r_min                   =  -1.5846369264521E-05
(PID.TID 0000.0001) %MON vort_r_max                   =   1.5836742540766E-05
(PID.TID 0000.0001) %MON vort_a_mean                  =  -4.4124393128133E-20
(PID.TID 0000.0001) %MON vort_a_sd                    =   8.5598323049637E-05
(PID.TID 0000.0001) %MON vort_p_mean                  =  -3.9221596991908E-20
(PID.TID 0000.0001) %MON vort_p_sd                    =   8.4264982831278E-05
(PID.TID 0000.0001) %MON surfExpan_theta_mean         =  -3.8109518977386E+00
(PID.TID 0000.0001) %MON surfExpan_salt_mean          =  -4.0594436060122E-04
(PID.TID 0000.0001) %MON surfExpan_Heat_mean          =  -3.4244885488354E+02
(PID.TID 0000.0001) %MON En_Budget_T2PE_mean          =   6.7595223716562E+01
(PID.TID 0000.0001) // =======================================================
(PID.TID 0000.0001) // End MONITOR dynamic field statistics
(PID.TID 0000.0001) // =======================================================
 cg2d: Sum(rhs),rhsMax =  -3.72529029846191E-09  4.85312949021504E+04
(PID.TID 0000.0001)      cg2d_init_res =   5.42393911548240E+04
(PID.TID 0000.0001)      cg2d_iters(min,last) =      -1      14
(PID.TID 0000.0001)      cg2d_last_res =   1.90038066307280E-11
(PID.TID 0000.0001) // =======================================================
(PID.TID 0000.0001) // Begin MONITOR dynamic field statistics
(PID.TID 0000.0001) // =======================================================
(PID.TID 0000.0001) %MON time_tsnumber                =                    40
(PID.TID 0000.0001) %MON time_secondsf                =   1.4400000000000E+04
(PID.TID 0000.0001) %MON dynstat_eta_max              =   6.0637948622589E+03
(PID.TID 0000.0001) %MON dynstat_eta_min              =  -4.6332252472398E+03
(PID.TID 0000.0001) %MON dynstat_eta_mean             =  -3.4276315750819E-13
(PID.TID 0000.0001) %MON dynstat_eta_sd               =   3.6797313193868E+03
(PID.TID 0000.0001) %MON dynstat_eta_del2             =   8.7229373939690E-01
(PID.TID 0000.0001) %MON dynstat_uvel_max             =   3.6733482201445E+01
(PID.TID 0000.0001) %MON dynstat_uvel_min             =  -3.6729540336126E+01
(PID.TID 0000.0001) %MON dynstat_uvel_mean            =   1.5896766798899E+00
(PID.TID 0000.0001) %MON dynstat_uvel_sd              =   1.0908602038197E+01
(PID.TID 0000.0001) %MON dynstat_uvel_del2            =   1.9901420822779E-03
(PID.TID 0000.0001) %MON dynstat_vvel_max             =   3.6718187869969E+01
(PID.TID 0000.0001) %MON dynstat_vvel_min             =  -3.6721308024194E+01
(PID.TID 0000.0001) %MON dynstat_vvel_mean            =   1.6072262591601E+00
(PID.TID 0000.0001) %MON dynstat_vvel_sd              =   1.0905970222991E+01
(PID.TID 0000.0001) %MON dynstat_vvel_del2            =   1.9894605685477E-03
(PID.TID 0000.0001) %MON dynstat_wvel_max             =   3.2953891746730E-01
(PID.TID 0000.0001) %MON dynstat_wvel_min             =  -2.4301042996360E-01
(PID.TID 0000.0001) %MON dynstat_wvel_mean            =   1.0566914052623E-16
(PID.TID 0000.0001) %MON dynstat_wvel_sd              =   1.1178985369943E-01
(PID.TID 0000.0001) %MON dynstat_wvel_del2            =   9.7912871142677E-05
(PID.TID 0000.0001) %MON dynstat_theta_max            =   1.1579072249887E+03
(PID.TID 0000.0001) %MON dynstat_theta_min            =   2.5848080582683E+02
(PID.TID 0000.0001) %MON dynstat_theta_mean           =   3.2784602842767E+02
(PID.TID 0000.0001) %MON dynstat_theta_sd             =   9.0438432146590E+01
(PID.TID 0000.0001) %MON dynstat_theta_del2           =   6.8640370757213E-04
(PID.TID 0000.0001) %MON dynstat_salt_max             =   2.2352865910187E-02
(PID.TID 0000.0001) %MON dynstat_salt_min             =   4.7221090772651-209
(PID.TID 0000.0001) %MON dynstat_salt_mean            =   1.9468858018099E-03
(PID.TID 0000.0001) %MON dynstat_salt_sd              =   3.9893875794735E-03
(PID.TID 0000.0001) %MON dynstat_salt_del2            =   8.4807433135550E-07
(PID.TID 0000.0001) %MON trAdv_CFL_u_max              =   1.1628919571181E-01
(PID.TID 0000.0001) %MON trAdv_CFL_v_max              =   1.1625138782121E-01
(PID.TID 0000.0001) %MON trAdv_CFL_w_max              =   1.3294344344782E-02
(PID.TID 0000.0001) %MON advcfl_uvel_max              =   1.0984631822658E-01
(PID.TID 0000.0001) %MON advcfl_vvel_max              =   1.0981368698931E-01
(PID.TID 0000.0001) %MON advcfl_wvel_max              =   1.3310336812493E-02
(PID.TID 0000.0001) %MON advcfl_W_hf_max              =   1.5752959692159E-02
(PID.TID 0000.0001) %MON am_eta_mean                  =  -3.1740831349422E+11
(PID.TID 0000.0001) %MON am_uZo_mean                  =   3.1674286883827E+11
(PID.TID 0000.0001) %MON am_tot_mean                  =  -6.6544465594287E+08
(PID.TID 0000.0001) %MON pe_b_mean                    =   5.7347415962777E+01
(PID.TID 0000.0001) %MON ke_max                       =   6.8600443704941E+02
(PID.TID 0000.0001) %MON ke_mean                      =   1.2152401656377E+02
(PID.TID 0000.0001) %MON ke_vol                       =   5.0986421042785E+19
(PID.TID 0000.0001) %MON vort_r_min                   =  -1.6225466660173E-05
(PID.TID 0000.0001) %MON vort_r_max                   =   1.6215837858608E-05
(PID.TID 0000.0001) %MON vort_a_mean                  =  -1.8385163803389E-19
(PID.TID 0000.0001) %MON vort_a_sd                    =   8.5642425248310E-05
(PID.TID 0000.0001) %MON vort_p_mean                  =  -1.8139986841765E-19
(PID.TID 0000.0001) %MON vort_p_sd                    =   8.4267492835444E-05
(PID.TID 0000.0001) %MON surfExpan_theta_mean         =  -3.6601897309919E+00
(PID.TID 0000.0001) %MON surfExpan_salt_mean          =  -3.9321620423490E-04
(PID.TID 0000.0001) %MON surfExpan_Heat_mean          =  -3.2917921641662E+02
(PID.TID 0000.0001) %MON En_Budget_T2PE_mean          =   6.7657086553726E+01
(PID.TID 0000.0001) // =======================================================
(PID.TID 0000.0001) // End MONITOR dynamic field statistics
(PID.TID 0000.0001) // =======================================================
(PID.TID 0000.0001) DIAGSTATS_CLOSE_IO: close file: dynStDiag.0000000000.txt , unit=     9
(PID.TID 0000.0001) DIAGSTATS_CLOSE_IO: close file: diffStDiag.0000000000.txt , unit=    10
(PID.TID 0000.0001) DIAGSTATS_CLOSE_IO: close file: flxStDiag.0000000000.txt , unit=    16
(PID.TID 0000.0001) %CHECKPOINT        40 ckptA
(PID.TID 0000.0001)   Seconds in section "ALL                    [THE_MODEL_MAIN]":
(PID.TID 0000.0001)           User time:   133.06876906659454
(PID.TID 0000.0001)         System time:  0.91986001306213439
(PID.TID 0000.0001)     Wall clock time:   134.41871905326843
(PID.TID 0000.0001)          No. starts:           1
(PID.TID 0000.0001)           No. stops:           1
(PID.TID 0000.0001)   Seconds in section "INITIALISE_FIXED       [THE_MODEL_MAIN]":
(PID.TID 0000.0001)           User time:  0.30195400025695562
(PID.TID 0000.0001)         System time:  3.59949993435293436E-002
(PID.TID 0000.0001)     Wall clock time:  0.37289500236511230
(PID.TID 0000.0001)          No. starts:           1
(PID.TID 0000.0001)           No. stops:           1
(PID.TID 0000.0001)   Seconds in section "THE_MAIN_LOOP          [THE_MODEL_MAIN]":
(PID.TID 0000.0001)           User time:   132.76681506633759
(PID.TID 0000.0001)         System time:  0.88386501371860504
(PID.TID 0000.0001)     Wall clock time:   134.04578995704651
(PID.TID 0000.0001)          No. starts:           1
(PID.TID 0000.0001)           No. stops:           1
(PID.TID 0000.0001)   Seconds in section "INITIALISE_VARIA    [THE_MAIN_LOOP]":
(PID.TID 0000.0001)           User time:   1.3257980346679688
(PID.TID 0000.0001)         System time:  8.49869996309280396E-002
(PID.TID 0000.0001)     Wall clock time:   1.5044791698455811
(PID.TID 0000.0001)          No. starts:           1
(PID.TID 0000.0001)           No. stops:           1
(PID.TID 0000.0001)   Seconds in section "MAIN LOOP           [THE_MAIN_LOOP]":
(PID.TID 0000.0001)           User time:   131.44101703166962
(PID.TID 0000.0001)         System time:  0.79887801408767700
(PID.TID 0000.0001)     Wall clock time:   132.54128003120422
(PID.TID 0000.0001)          No. starts:           1
(PID.TID 0000.0001)           No. stops:           1
(PID.TID 0000.0001)   Seconds in section "MAIN_DO_LOOP        [THE_MAIN_LOOP]":
(PID.TID 0000.0001)           User time:   131.44101703166962
(PID.TID 0000.0001)         System time:  0.79887801408767700
(PID.TID 0000.0001)     Wall clock time:   132.54091787338257
(PID.TID 0000.0001)          No. starts:          40
(PID.TID 0000.0001)           No. stops:          40
(PID.TID 0000.0001)   Seconds in section "FORWARD_STEP        [MAIN_DO_LOOP]":
(PID.TID 0000.0001)           User time:   131.44101703166962
(PID.TID 0000.0001)         System time:  0.79887801408767700
(PID.TID 0000.0001)     Wall clock time:   132.54019546508789
(PID.TID 0000.0001)          No. starts:          40
(PID.TID 0000.0001)           No. stops:          40
(PID.TID 0000.0001)   Seconds in section "DO_STATEVARS_DIAGS  [FORWARD_STEP]":
(PID.TID 0000.0001)           User time:   7.2948687076568604
(PID.TID 0000.0001)         System time:  1.00000202655792236E-003
(PID.TID 0000.0001)     Wall clock time:   7.2994735240936279
(PID.TID 0000.0001)          No. starts:         120
(PID.TID 0000.0001)           No. stops:         120
(PID.TID 0000.0001)   Seconds in section "LOAD_FIELDS_DRIVER  [FORWARD_STEP]":
(PID.TID 0000.0001)           User time:  0.12399697303771973
(PID.TID 0000.0001)         System time:   0.0000000000000000
(PID.TID 0000.0001)     Wall clock time:  0.12331151962280273
(PID.TID 0000.0001)          No. starts:          40
(PID.TID 0000.0001)           No. stops:          40
(PID.TID 0000.0001)   Seconds in section "EXTERNAL_FLDS_LOAD [LOAD_FLDS_DRIVER]":
(PID.TID 0000.0001)           User time:  9.99450683593750000E-004
(PID.TID 0000.0001)         System time:   0.0000000000000000
(PID.TID 0000.0001)     Wall clock time:  3.92198562622070313E-004
(PID.TID 0000.0001)          No. starts:          40
(PID.TID 0000.0001)           No. stops:          40
(PID.TID 0000.0001)   Seconds in section "CPL_EXPORT-IMPORT  [FORWARD_STEP]":
(PID.TID 0000.0001)           User time:  1.20007991790771484E-002
(PID.TID 0000.0001)         System time:   0.0000000000000000
(PID.TID 0000.0001)     Wall clock time:  1.01823806762695313E-002
(PID.TID 0000.0001)          No. starts:          40
(PID.TID 0000.0001)           No. stops:          40
(PID.TID 0000.0001)   Seconds in section "DO_ATMOSPHERIC_PHYS [FORWARD_STEP]":
(PID.TID 0000.0001)           User time:   19.218068957328796
(PID.TID 0000.0001)         System time:  0.75988499820232391
(PID.TID 0000.0001)     Wall clock time:   20.031132459640503
(PID.TID 0000.0001)          No. starts:          40
(PID.TID 0000.0001)           No. stops:          40
(PID.TID 0000.0001)   Seconds in section "ATM_PHYS_DRIVER [DO_ATMOSPHERIC_PHYS]":
(PID.TID 0000.0001)           User time:   18.695172309875488
(PID.TID 0000.0001)         System time:  0.75988499820232391
(PID.TID 0000.0001)     Wall clock time:   19.503376245498657
(PID.TID 0000.0001)          No. starts:          40
(PID.TID 0000.0001)           No. stops:          40
(PID.TID 0000.0001)   Seconds in section "DO_OCEANIC_PHYS     [FORWARD_STEP]":
(PID.TID 0000.0001)           User time:  1.30014419555664063E-002
(PID.TID 0000.0001)         System time:   0.0000000000000000
(PID.TID 0000.0001)     Wall clock time:  9.12237167358398438E-003
(PID.TID 0000.0001)          No. starts:          40
(PID.TID 0000.0001)           No. stops:          40
(PID.TID 0000.0001)   Seconds in section "DYNAMICS            [FORWARD_STEP]":
(PID.TID 0000.0001)           User time:   28.462661743164063
(PID.TID 0000.0001)         System time:  1.00000202655792236E-003
(PID.TID 0000.0001)     Wall clock time:   28.527809381484985
(PID.TID 0000.0001)          No. starts:          40
(PID.TID 0000.0001)           No. stops:          40
(PID.TID 0000.0001)   Seconds in section "UPDATE_R_STAR       [FORWARD_STEP]":
(PID.TID 0000.0001)           User time:   2.0757317543029785
(PID.TID 0000.0001)         System time:  9.99987125396728516E-004
(PID.TID 0000.0001)     Wall clock time:   2.0770885944366455
(PID.TID 0000.0001)          No. starts:          40
(PID.TID 0000.0001)           No. stops:          40
(PID.TID 0000.0001)   Seconds in section "UPDATE_CG2D         [FORWARD_STEP]":
(PID.TID 0000.0001)           User time:  0.78186511993408203
(PID.TID 0000.0001)         System time:   0.0000000000000000
(PID.TID 0000.0001)     Wall clock time:  0.78446173667907715
(PID.TID 0000.0001)          No. starts:          40
(PID.TID 0000.0001)           No. stops:          40
(PID.TID 0000.0001)   Seconds in section "SOLVE_FOR_PRESSURE  [FORWARD_STEP]":
(PID.TID 0000.0001)           User time:   2.6465897560119629
(PID.TID 0000.0001)         System time:   0.0000000000000000
(PID.TID 0000.0001)     Wall clock time:   2.6555314064025879
(PID.TID 0000.0001)          No. starts:          40
(PID.TID 0000.0001)           No. stops:          40
(PID.TID 0000.0001)   Seconds in section "MOM_CORRECTION_STEP [FORWARD_STEP]":
(PID.TID 0000.0001)           User time:   14.971701145172119
(PID.TID 0000.0001)         System time:  3.00000607967376709E-003
(PID.TID 0000.0001)     Wall clock time:   15.008488416671753
(PID.TID 0000.0001)          No. starts:          40
(PID.TID 0000.0001)           No. stops:          40
(PID.TID 0000.0001)   Seconds in section "SHAP_FILT_UV       [MOM_CORR_STEP]":
(PID.TID 0000.0001)           User time:   14.066829442977905
(PID.TID 0000.0001)         System time:  3.00000607967376709E-003
(PID.TID 0000.0001)     Wall clock time:   14.098088264465332
(PID.TID 0000.0001)          No. starts:          40
(PID.TID 0000.0001)           No. stops:          40
(PID.TID 0000.0001)   Seconds in section "INTEGR_CONTINUITY   [FORWARD_STEP]":
(PID.TID 0000.0001)           User time:   2.4186584949493408
(PID.TID 0000.0001)         System time:   0.0000000000000000
(PID.TID 0000.0001)     Wall clock time:   2.4250781536102295
(PID.TID 0000.0001)          No. starts:          40
(PID.TID 0000.0001)           No. stops:          40
(PID.TID 0000.0001)   Seconds in section "CALC_R_STAR         [FORWARD_STEP]":
(PID.TID 0000.0001)           User time:  0.25495314598083496
(PID.TID 0000.0001)         System time:   0.0000000000000000
(PID.TID 0000.0001)     Wall clock time:  0.25109624862670898
(PID.TID 0000.0001)          No. starts:          40
(PID.TID 0000.0001)           No. stops:          40
(PID.TID 0000.0001)   Seconds in section "BLOCKING_EXCHANGES  [FORWARD_STEP]":
(PID.TID 0000.0001)           User time:   1.8477385044097900
(PID.TID 0000.0001)         System time:   0.0000000000000000
(PID.TID 0000.0001)     Wall clock time:   1.8622462749481201
(PID.TID 0000.0001)          No. starts:          80
(PID.TID 0000.0001)           No. stops:          80
(PID.TID 0000.0001)   Seconds in section "THERMODYNAMICS      [FORWARD_STEP]":
(PID.TID 0000.0001)           User time:   30.875267028808594
(PID.TID 0000.0001)         System time:  6.99803233146667480E-003
(PID.TID 0000.0001)     Wall clock time:   30.952725172042847
(PID.TID 0000.0001)          No. starts:          40
(PID.TID 0000.0001)           No. stops:          40
(PID.TID 0000.0001)   Seconds in section "TRC_CORRECTION_STEP [FORWARD_STEP]":
(PID.TID 0000.0001)           User time:   5.5411643981933594
(PID.TID 0000.0001)         System time:   0.0000000000000000
(PID.TID 0000.0001)     Wall clock time:   5.5549819469451904
(PID.TID 0000.0001)          No. starts:          40
(PID.TID 0000.0001)           No. stops:          40
(PID.TID 0000.0001)   Seconds in section "SHAP_FILT_TS       [TRC_CORR_STEP]":
(PID.TID 0000.0001)           User time:   5.5391654968261719
(PID.TID 0000.0001)         System time:   0.0000000000000000
(PID.TID 0000.0001)     Wall clock time:   5.5541255474090576
(PID.TID 0000.0001)          No. starts:          40
(PID.TID 0000.0001)           No. stops:          40
(PID.TID 0000.0001)   Seconds in section "MONITOR             [FORWARD_STEP]":
(PID.TID 0000.0001)           User time:   14.739777565002441
(PID.TID 0000.0001)         System time:  3.99896502494812012E-003
(PID.TID 0000.0001)     Wall clock time:   14.782477855682373
(PID.TID 0000.0001)          No. starts:          40
(PID.TID 0000.0001)           No. stops:          40
(PID.TID 0000.0001)   Seconds in section "DO_THE_MODEL_IO     [FORWARD_STEP]":
(PID.TID 0000.0001)           User time:  6.69860839843750000E-002
(PID.TID 0000.0001)         System time:  6.99800252914428711E-003
(PID.TID 0000.0001)     Wall clock time:  7.43510723114013672E-002
(PID.TID 0000.0001)          No. starts:          40
(PID.TID 0000.0001)           No. stops:          40
(PID.TID 0000.0001)   Seconds in section "DO_WRITE_PICKUP     [FORWARD_STEP]":
(PID.TID 0000.0001)           User time:  8.59985351562500000E-002
(PID.TID 0000.0001)         System time:  1.49980187416076660E-002
(PID.TID 0000.0001)     Wall clock time:  0.10154604911804199
(PID.TID 0000.0001)          No. starts:          40
(PID.TID 0000.0001)           No. stops:          40
(PID.TID 0000.0001) // ======================================================
(PID.TID 0000.0001) // Tile <-> Tile communication statistics
(PID.TID 0000.0001) // ======================================================
(PID.TID 0000.0001) // o Tile number: 000001
(PID.TID 0000.0001) //         No. X exchanges =              0
(PID.TID 0000.0001) //            Max. X spins =              0
(PID.TID 0000.0001) //            Min. X spins =     1000000000
(PID.TID 0000.0001) //          Total. X spins =              0
(PID.TID 0000.0001) //            Avg. X spins =       0.00E+00
(PID.TID 0000.0001) //         No. Y exchanges =              0
(PID.TID 0000.0001) //            Max. Y spins =              0
(PID.TID 0000.0001) //            Min. Y spins =     1000000000
(PID.TID 0000.0001) //          Total. Y spins =              0
(PID.TID 0000.0001) //            Avg. Y spins =       0.00E+00
(PID.TID 0000.0001) // o Tile number: 000002
(PID.TID 0000.0001) //         No. X exchanges =              0
(PID.TID 0000.0001) //            Max. X spins =              0
(PID.TID 0000.0001) //            Min. X spins =     1000000000
(PID.TID 0000.0001) //          Total. X spins =              0
(PID.TID 0000.0001) //            Avg. X spins =       0.00E+00
(PID.TID 0000.0001) //         No. Y exchanges =              0
(PID.TID 0000.0001) //            Max. Y spins =              0
(PID.TID 0000.0001) //            Min. Y spins =     1000000000
(PID.TID 0000.0001) //          Total. Y spins =              0
(PID.TID 0000.0001) //            Avg. Y spins =       0.00E+00
(PID.TID 0000.0001) // o Tile number: 000003
(PID.TID 0000.0001) //         No. X exchanges =              0
(PID.TID 0000.0001) //            Max. X spins =              0
(PID.TID 0000.0001) //            Min. X spins =     1000000000
(PID.TID 0000.0001) //          Total. X spins =              0
(PID.TID 0000.0001) //            Avg. X spins =       0.00E+00
(PID.TID 0000.0001) //         No. Y exchanges =              0
(PID.TID 0000.0001) //            Max. Y spins =              0
(PID.TID 0000.0001) //            Min. Y spins =     1000000000
(PID.TID 0000.0001) //          Total. Y spins =              0
(PID.TID 0000.0001) //            Avg. Y spins =       0.00E+00
(PID.TID 0000.0001) // o Tile number: 000004
(PID.TID 0000.0001) //         No. X exchanges =              0
(PID.TID 0000.0001) //            Max. X spins =              0
(PID.TID 0000.0001) //            Min. X spins =     1000000000
(PID.TID 0000.0001) //          Total. X spins =              0
(PID.TID 0000.0001) //            Avg. X spins =       0.00E+00
(PID.TID 0000.0001) //         No. Y exchanges =              0
(PID.TID 0000.0001) //            Max. Y spins =              0
(PID.TID 0000.0001) //            Min. Y spins =     1000000000
(PID.TID 0000.0001) //          Total. Y spins =              0
(PID.TID 0000.0001) //            Avg. Y spins =       0.00E+00
(PID.TID 0000.0001) // o Tile number: 000005
(PID.TID 0000.0001) //         No. X exchanges =              0
(PID.TID 0000.0001) //            Max. X spins =              0
(PID.TID 0000.0001) //            Min. X spins =     1000000000
(PID.TID 0000.0001) //          Total. X spins =              0
(PID.TID 0000.0001) //            Avg. X spins =       0.00E+00
(PID.TID 0000.0001) //         No. Y exchanges =              0
(PID.TID 0000.0001) //            Max. Y spins =              0
(PID.TID 0000.0001) //            Min. Y spins =     1000000000
(PID.TID 0000.0001) //          Total. Y spins =              0
(PID.TID 0000.0001) //            Avg. Y spins =       0.00E+00
(PID.TID 0000.0001) // o Tile number: 000006
(PID.TID 0000.0001) //         No. X exchanges =              0
(PID.TID 0000.0001) //            Max. X spins =              0
(PID.TID 0000.0001) //            Min. X spins =     1000000000
(PID.TID 0000.0001) //          Total. X spins =              0
(PID.TID 0000.0001) //            Avg. X spins =       0.00E+00
(PID.TID 0000.0001) //         No. Y exchanges =              0
(PID.TID 0000.0001) //            Max. Y spins =              0
(PID.TID 0000.0001) //            Min. Y spins =     1000000000
(PID.TID 0000.0001) //          Total. Y spins =              0
(PID.TID 0000.0001) //            Avg. Y spins =       0.00E+00
(PID.TID 0000.0001) // o Thread number: 000001
(PID.TID 0000.0001) //            No. barriers =          18328
(PID.TID 0000.0001) //      Max. barrier spins =              1
(PID.TID 0000.0001) //      Min. barrier spins =              1
(PID.TID 0000.0001) //     Total barrier spins =          18328
(PID.TID 0000.0001) //      Avg. barrier spins =       1.00E+00
PROGRAM MAIN: Execution ended Normally
