(PID.TID 0000.0001) 
(PID.TID 0000.0001) // ======================================================
(PID.TID 0000.0001) //                      MITgcm UV
(PID.TID 0000.0001) //                      =========
(PID.TID 0000.0001) // ======================================================
(PID.TID 0000.0001) // execution environment starting up...
(PID.TID 0000.0001) 
(PID.TID 0000.0001) // MITgcmUV version:  checkpoint65e
(PID.TID 0000.0001) // Build user:        jmc
(PID.TID 0000.0001) // Build host:        baudelaire
(PID.TID 0000.0001) // Build date:        Mon Oct  6 21:25:09 EDT 2014
(PID.TID 0000.0001) 
(PID.TID 0000.0001) // =======================================================
(PID.TID 0000.0001) // Execution Environment parameter file "eedata"
(PID.TID 0000.0001) // =======================================================
(PID.TID 0000.0001) ># Example "eedata" file
(PID.TID 0000.0001) ># Lines beginning "#" are comments
(PID.TID 0000.0001) ># nTx - No. threads per process in X
(PID.TID 0000.0001) ># nTy - No. threads per process in Y
(PID.TID 0000.0001) > &EEPARMS
(PID.TID 0000.0001) > useCoupler=.TRUE.,
(PID.TID 0000.0001) > useCubedSphereExchange=.TRUE.,
(PID.TID 0000.0001) > nTx=1,
(PID.TID 0000.0001) > nTy=1,
(PID.TID 0000.0001) >#debugMode=.TRUE.,
(PID.TID 0000.0001) > /
(PID.TID 0000.0001) ># Note: Some systems use & as the namelist terminator (as shown here).
(PID.TID 0000.0001) >#       Other systems use a / character.
(PID.TID 0000.0001) 
(PID.TID 0000.0001) // =======================================================
(PID.TID 0000.0001) // Computational Grid Specification ( see files "SIZE.h" )
(PID.TID 0000.0001) //                                  ( and "eedata"       )
(PID.TID 0000.0001) // =======================================================
(PID.TID 0000.0001)      nPx =    1 ; /* No. processes in X */
(PID.TID 0000.0001)      nPy =    1 ; /* No. processes in Y */
(PID.TID 0000.0001)      nSx =    6 ; /* No. tiles in X per process */
(PID.TID 0000.0001)      nSy =    1 ; /* No. tiles in Y per process */
(PID.TID 0000.0001)      sNx =   32 ; /* Tile size in X */
(PID.TID 0000.0001)      sNy =   32 ; /* Tile size in Y */
(PID.TID 0000.0001)      OLx =    4 ; /* Tile overlap distance in X */
(PID.TID 0000.0001)      OLy =    4 ; /* Tile overlap distance in Y */
(PID.TID 0000.0001)      nTx =    1 ; /* No. threads in X per process */
(PID.TID 0000.0001)      nTy =    1 ; /* No. threads in Y per process */
(PID.TID 0000.0001)       Nr =   26 ; /* No. levels in the vertical   */
(PID.TID 0000.0001)       Nx =  192 ; /* Total domain size in X ( = nPx*nSx*sNx ) */
(PID.TID 0000.0001)       Ny =   32 ; /* Total domain size in Y ( = nPy*nSy*sNy ) */
(PID.TID 0000.0001)   nTiles =    6 ; /* Total no. tiles per process ( = nSx*nSy ) */
(PID.TID 0000.0001)   nProcs =    1 ; /* Total no. processes ( = nPx*nPy ) */
(PID.TID 0000.0001) nThreads =    1 ; /* Total no. threads per process ( = nTx*nTy ) */
(PID.TID 0000.0001) usingMPI =    T ; /* Flag used to control whether MPI is in use */
(PID.TID 0000.0001)                   /*  note: To execute a program with MPI calls */
(PID.TID 0000.0001)                   /*  it must be launched appropriately e.g     */
(PID.TID 0000.0001)                   /*  "mpirun -np 64 ......"                    */
(PID.TID 0000.0001) useCoupler=    T ;/* Flag used to control communications with   */
(PID.TID 0000.0001)                   /*  other model components, through a coupler */
(PID.TID 0000.0001) debugMode =    F ; /* print debug msg. (sequence of S/R calls)  */
(PID.TID 0000.0001) printMapIncludesZeros=    F ; /* print zeros in Std.Output maps */
(PID.TID 0000.0001) maxLengthPrt1D=   65 /* maxLength of 1D array printed to StdOut */
(PID.TID 0000.0001) 
(PID.TID 0000.0001) ======= Starting MPI parallel Run =========
(PID.TID 0000.0001)  My Processor Name (len: 10 ) = baudelaire
(PID.TID 0000.0001)  Located at (  0,  0) on processor grid (0:  0,0:  0)
(PID.TID 0000.0001)  Origin at  (     1,     1) on global grid (1:   192,1:    32)
(PID.TID 0000.0001)  North neighbor = processor 0000
(PID.TID 0000.0001)  South neighbor = processor 0000
(PID.TID 0000.0001)   East neighbor = processor 0000
(PID.TID 0000.0001)   West neighbor = processor 0000
(PID.TID 0000.0001) // ======================================================
(PID.TID 0000.0001) // Mapping of tiles to threads
(PID.TID 0000.0001) // ======================================================
(PID.TID 0000.0001) // -o- Thread   1, tiles (   1:   6,   1:   1)
(PID.TID 0000.0001) 
(PID.TID 0000.0001) W2_READPARMS: file data.exch2 not found
(PID.TID 0000.0001) => use W2_EXCH2 default: regular 6-facets Cube
(PID.TID 0000.0001) W2_useE2ioLayOut=    T ;/* T: use Exch2 glob IO map; F: use model default */
(PID.TID 0000.0001) W2_mapIO        =  -1 ; /* select option for Exch2 global-IO map */
(PID.TID 0000.0001) W2_printMsg     =  -1 ; /* select option for printing information */
(PID.TID 0000.0001) ===== Start setting W2 TOPOLOGY:
(PID.TID 0000.0001)  write to log-file: w2_tile_topology.0000.log
(PID.TID 0000.0001) =====       setting W2 TOPOLOGY: Done
(PID.TID 0000.0001) 
(PID.TID 0000.0001)  INI_PARMS: opening model parameter file "data"
(PID.TID 0000.0001)  OPEN_COPY_DATA_FILE: opening file data
(PID.TID 0000.0001) // =======================================================
(PID.TID 0000.0001) // Parameter file "data"
(PID.TID 0000.0001) // =======================================================
(PID.TID 0000.0001) ># ====================
(PID.TID 0000.0001) ># | Model parameters |
(PID.TID 0000.0001) ># ====================
(PID.TID 0000.0001) >#
(PID.TID 0000.0001) ># Continuous equation parameters
(PID.TID 0000.0001) > &PARM01
(PID.TID 0000.0001) >#- mean theta* from H&S, isothermal (T=200.K) above p=150.mb:
(PID.TID 0000.0001) > tRef= 295.1, 295.2, 295.4, 295.6, 296.0, 296.6, 297.3, 298.2, 299.3, 300.6,
(PID.TID 0000.0001) >       302.4, 305.9, 311.8, 321.8, 338.3, 359.5, 382.8, 408.6, 437.5, 470.6,
(PID.TID 0000.0001) >       509.2, 555.8, 614.9, 696.3, 827.2, 1153.6,
(PID.TID 0000.0001) >#tRef=26*280.,
(PID.TID 0000.0001) > sRef=26*0.,
(PID.TID 0000.0001) > viscAr=0.E1,
(PID.TID 0000.0001) > viscAh=0.E6,
(PID.TID 0000.0001) > viscA4=0.E17,
(PID.TID 0000.0001) > no_slip_sides=.FALSE.,
(PID.TID 0000.0001) > no_slip_bottom=.FALSE.,
(PID.TID 0000.0001) > diffKhT=0.E3,
(PID.TID 0000.0001) > diffKrT=0.,
(PID.TID 0000.0001) > diffK4T=0.E17,
(PID.TID 0000.0001) > diffKrS=0.E2,
(PID.TID 0000.0001) > diffKhS=0.E3,
(PID.TID 0000.0001) > diffK4S=0.E17,
(PID.TID 0000.0001) > buoyancyRelation='ATMOSPHERIC',
(PID.TID 0000.0001) > eosType='IDEALG',
(PID.TID 0000.0001) > atm_Cp=1004.64,
(PID.TID 0000.0001) > atm_Rq=0.6078,
(PID.TID 0000.0001) > Integr_GeoPot=2,
(PID.TID 0000.0001) > selectFindRoSurf=1,
(PID.TID 0000.0001) > gravity=9.80,
(PID.TID 0000.0001) > rhonil=1.0,
(PID.TID 0000.0001) > rhoConst=1.0,
(PID.TID 0000.0001) > rigidLid=.FALSE.,
(PID.TID 0000.0001) > implicitFreeSurface=.TRUE.,
(PID.TID 0000.0001) > exactConserv=.TRUE.,
(PID.TID 0000.0001) > select_rStar=2,
(PID.TID 0000.0001) > nonlinFreeSurf=4,
(PID.TID 0000.0001) > hFacInf=0.2,
(PID.TID 0000.0001) > hFacSup=2.0,
(PID.TID 0000.0001) > hFacMin=1.0,
(PID.TID 0000.0001) > uniformLin_PhiSurf=.FALSE.,
(PID.TID 0000.0001) > vectorInvariantMomentum=.TRUE.,
(PID.TID 0000.0001) > useAbsVorticity=.TRUE.,
(PID.TID 0000.0001) > selectVortScheme=3,
(PID.TID 0000.0001) > selectKEscheme=3,
(PID.TID 0000.0001) > addFrictionHeating=.TRUE.,
(PID.TID 0000.0001) >#tempAdvScheme=77,
(PID.TID 0000.0001) > saltAdvScheme=77,
(PID.TID 0000.0001) > staggerTimeStep=.TRUE.,
(PID.TID 0000.0001) > readBinaryPrec=64,
(PID.TID 0000.0001) > writeBinaryPrec=64,
(PID.TID 0000.0001) >#globalFiles=.TRUE.,
(PID.TID 0000.0001) >#useSingleCpuIO=.TRUE.,
(PID.TID 0000.0001) > /
(PID.TID 0000.0001) >
(PID.TID 0000.0001) ># Elliptic solver parameters
(PID.TID 0000.0001) > &PARM02
(PID.TID 0000.0001) > cg2dMaxIters=200,
(PID.TID 0000.0001) > cg2dTargetResWunit=1.E-17,
(PID.TID 0000.0001) > /
(PID.TID 0000.0001) >
(PID.TID 0000.0001) ># Time stepping parameters
(PID.TID 0000.0001) > &PARM03
(PID.TID 0000.0001) > nIter0=0,
(PID.TID 0000.0001) ># 10.yrs or 8.yrs:
(PID.TID 0000.0001) >#nTimeSteps=864000,
(PID.TID 0000.0001) > nTimeSteps=691200,
(PID.TID 0000.0001) >#endTime=311040000.,
(PID.TID 0000.0001) >#endTime=5184000.,
(PID.TID 0000.0001) > deltaT=360.,
(PID.TID 0000.0001) > abEps=0.1,
(PID.TID 0000.0001) > forcing_In_AB=.FALSE.,
(PID.TID 0000.0001) > cAdjFreq=0.,
(PID.TID 0000.0001) >#- long run (> 1.yr):
(PID.TID 0000.0001) >#pChkptFreq =311040000.,
(PID.TID 0000.0001) >#chkptFreq  = 77760000.,
(PID.TID 0000.0001) > pChkptFreq =248832000.,
(PID.TID 0000.0001) > chkptFreq  = 62208000.,
(PID.TID 0000.0001) > dumpFreq   = 31104000.,
(PID.TID 0000.0001) > monitorFreq= 2592000.,
(PID.TID 0000.0001) >#- short run (~ months):
(PID.TID 0000.0001) >#pChkptFreq = 2592000.,
(PID.TID 0000.0001) >#chkptFreq  =  864000.,
(PID.TID 0000.0001) >#dumpFreq   =  432000.,
(PID.TID 0000.0001) >#monitorFreq=  43200.,
(PID.TID 0000.0001) >#- short test:
(PID.TID 0000.0001) > nTimeSteps=40,
(PID.TID 0000.0001) >#dumpFreq   =1.,
(PID.TID 0000.0001) > monitorFreq=1.,
(PID.TID 0000.0001) > /
(PID.TID 0000.0001) >
(PID.TID 0000.0001) ># Gridding parameters
(PID.TID 0000.0001) > &PARM04
(PID.TID 0000.0001) > usingCurvilinearGrid=.TRUE.,
(PID.TID 0000.0001) > horizGridFile='dxC1_dXYa',
(PID.TID 0000.0001) > radius_fromHorizGrid=6370.E3,
(PID.TID 0000.0001) >#delR=25*40.E2,
(PID.TID 0000.0001) > delR= 1500., 2122., 3000., 4242., 6000., 7800., 9100., 9400., 9280., 8400.,
(PID.TID 0000.0001) >       6980., 5800., 4820., 4004., 3328., 2766., 2298., 1910., 1586., 1318.,
(PID.TID 0000.0001) >       1096.,  910.,  756.,  628.,  522.,  434.,
(PID.TID 0000.0001) > Ro_SeaLevel=1.E5,
(PID.TID 0000.0001) > /
(PID.TID 0000.0001) >
(PID.TID 0000.0001) ># Input datasets
(PID.TID 0000.0001) > &PARM05
(PID.TID 0000.0001) > hydrogThetaFile='ini_theta_26l.bin',
(PID.TID 0000.0001) > hydrogSaltFile ='ini_specQ_26l.bin',
(PID.TID 0000.0001) > /
(PID.TID 0000.0001) 
(PID.TID 0000.0001)  INI_PARMS ; starts to read PARM01
(PID.TID 0000.0001)  INI_PARMS ; read PARM01 : OK
(PID.TID 0000.0001)  INI_PARMS ; starts to read PARM02
(PID.TID 0000.0001)  INI_PARMS ; read PARM02 : OK
(PID.TID 0000.0001)  INI_PARMS ; starts to read PARM03
(PID.TID 0000.0001)  INI_PARMS ; read PARM03 : OK
(PID.TID 0000.0001)  INI_PARMS ; starts to read PARM04
(PID.TID 0000.0001)  INI_PARMS ; read PARM04 : OK
(PID.TID 0000.0001)  INI_PARMS ; starts to read PARM05
(PID.TID 0000.0001)  INI_PARMS ; read PARM05 : OK
(PID.TID 0000.0001)  INI_PARMS: finished reading file "data"
(PID.TID 0000.0001)  PACKAGES_BOOT: opening data.pkg
(PID.TID 0000.0001)  OPEN_COPY_DATA_FILE: opening file data.pkg
(PID.TID 0000.0001) // =======================================================
(PID.TID 0000.0001) // Parameter file "data.pkg"
(PID.TID 0000.0001) // =======================================================
(PID.TID 0000.0001) ># Packages
(PID.TID 0000.0001) > &PACKAGES
(PID.TID 0000.0001) > useSHAP_FILT=.TRUE.,
(PID.TID 0000.0001) > useDiagnostics=.TRUE.,
(PID.TID 0000.0001) > useAtm_Phys=.TRUE.,
(PID.TID 0000.0001) >#useMNC = .TRUE.,
(PID.TID 0000.0001) > /
(PID.TID 0000.0001) 
(PID.TID 0000.0001)  PACKAGES_BOOT: finished reading data.pkg
(PID.TID 0000.0001)  PACKAGES_BOOT: On/Off package Summary
 --------  pkgs with a standard "usePKG" On/Off switch in "data.pkg":  --------
 pkg/shap_filt            compiled   and   used ( useSHAP_FILT             = T )
 pkg/atm_phys             compiled   and   used ( useAtm_Phys              = T )
 pkg/diagnostics          compiled   and   used ( useDiagnostics           = T )
 -------- pkgs without standard "usePKG" On/Off switch in "data.pkg":  --------
 pkg/generic_advdiff      compiled   and   used ( useGAD                   = T )
 pkg/mom_common           compiled   and   used ( momStepping              = T )
 pkg/mom_vecinv           compiled   and   used ( +vectorInvariantMomentum = T )
 pkg/mom_fluxform         compiled but not used ( & not vectorInvariantMom = F )
 pkg/monitor              compiled   and   used ( monitorFreq > 0.         = T )
 pkg/debug                compiled but not used ( debugMode                = F )
 pkg/compon_communic      compiled   and   used ( useCoupler               = T )
 pkg/atm_compon_interf    compiled   and   used ( useCoupler               = T )
 pkg/exch2                compiled   and   used
 pkg/rw                   compiled   and   used
 pkg/mdsio                compiled   and   used
(PID.TID 0000.0001)  PACKAGES_BOOT: End of package Summary
(PID.TID 0000.0001) 
(PID.TID 0000.0001)  SHAP_FILT_READPARMS: opening data.shap
(PID.TID 0000.0001)  OPEN_COPY_DATA_FILE: opening file data.shap
(PID.TID 0000.0001) // =======================================================
(PID.TID 0000.0001) // Parameter file "data.shap"
(PID.TID 0000.0001) // =======================================================
(PID.TID 0000.0001) ># Shapiro Filter parameters
(PID.TID 0000.0001) > &SHAP_PARM01
(PID.TID 0000.0001) > shap_filt_uvStar=.FALSE.,
(PID.TID 0000.0001) > shap_filt_TrStagg=.TRUE.,
(PID.TID 0000.0001) > Shap_funct=2,
(PID.TID 0000.0001) > nShapT=4,
(PID.TID 0000.0001) > nShapS=0,
(PID.TID 0000.0001) > nShapUV=4,
(PID.TID 0000.0001) > nShapTrPhys=1,
(PID.TID 0000.0001) > nShapUVPhys=0,
(PID.TID 0000.0001) > Shap_TrLength=140000.,
(PID.TID 0000.0001) >#Shap_TrLength=115000.,
(PID.TID 0000.0001) >#Shap_uvLength=110000.,
(PID.TID 0000.0001) >#Shap_Trtau=5400.,
(PID.TID 0000.0001) >#Shap_uvtau=5400.,
(PID.TID 0000.0001) > Shap_Trtau=1800.,
(PID.TID 0000.0001) > Shap_uvtau= 900.,
(PID.TID 0000.0001) > /
(PID.TID 0000.0001) >
(PID.TID 0000.0001) 
(PID.TID 0000.0001)  SHAP_FILT_READPARMS: finished reading data.shap
(PID.TID 0000.0001) Shap_funct =   /* select Shapiro filter function */
(PID.TID 0000.0001)                       2
(PID.TID 0000.0001)     ;
(PID.TID 0000.0001) nShapT =   /* power of Shapiro filter for Temperat */
(PID.TID 0000.0001)                       4
(PID.TID 0000.0001)     ;
(PID.TID 0000.0001) nShapS =   /* power of Shapiro filter for Salinity */
(PID.TID 0000.0001)                       0
(PID.TID 0000.0001)     ;
(PID.TID 0000.0001) nShapUV =   /* power of Shapiro filter for momentum */
(PID.TID 0000.0001)                       4
(PID.TID 0000.0001)     ;
(PID.TID 0000.0001) shap_filt_uvStar = /* apply filter before Press. Solver */
(PID.TID 0000.0001)                   F
(PID.TID 0000.0001)     ;
(PID.TID 0000.0001) shap_filt_TrStagg = /* filter T,S before calc PhiHyd (staggerTimeStep) */
(PID.TID 0000.0001)                   T
(PID.TID 0000.0001)     ;
(PID.TID 0000.0001) Shap_alwaysExchUV = /* always exch(U,V)    nShapUV times*/
(PID.TID 0000.0001)                   F
(PID.TID 0000.0001)     ;
(PID.TID 0000.0001) Shap_alwaysExchTr = /* always exch(Tracer) nShapTr times*/
(PID.TID 0000.0001)                   F
(PID.TID 0000.0001)     ;
(PID.TID 0000.0001) nShapTrPhys =   /* power of physical-space filter (Tracer) */
(PID.TID 0000.0001)                       1
(PID.TID 0000.0001)     ;
(PID.TID 0000.0001) nShapUVPhys =   /* power of physical-space filter (Momentum) */
(PID.TID 0000.0001)                       0
(PID.TID 0000.0001)     ;
(PID.TID 0000.0001) Shap_Trtau =   /* time scale of Shapiro filter (Tracer) */
(PID.TID 0000.0001)                 1.800000000000000E+03
(PID.TID 0000.0001)     ;
(PID.TID 0000.0001) Shap_TrLength =   /* Length scale of Shapiro filter (Tracer) */
(PID.TID 0000.0001)                 1.400000000000000E+05
(PID.TID 0000.0001)     ;
(PID.TID 0000.0001) Shap_uvtau =   /* time scale of Shapiro filter (Momentum) */
(PID.TID 0000.0001)                 9.000000000000000E+02
(PID.TID 0000.0001)     ;
(PID.TID 0000.0001) Shap_uvLength =   /* Length scale of Shapiro filter (Momentum) */
(PID.TID 0000.0001)                 0.000000000000000E+00
(PID.TID 0000.0001)     ;
(PID.TID 0000.0001) Shap_noSlip =  /* No-slip parameter (0=Free-slip ; 1=No-slip)*/
(PID.TID 0000.0001)                 0.000000000000000E+00
(PID.TID 0000.0001)     ;
(PID.TID 0000.0001) Shap_diagFreq =   /* Frequency^-1 for diagnostic output (s)*/
(PID.TID 0000.0001)                 0.000000000000000E+00
(PID.TID 0000.0001)     ;
(PID.TID 0000.0001) ATM_PHYS_READPARMS: opening data.atm_phys
(PID.TID 0000.0001)  OPEN_COPY_DATA_FILE: opening file data.atm_phys
(PID.TID 0000.0001) // =======================================================
(PID.TID 0000.0001) // Parameter file "data.atm_phys"
(PID.TID 0000.0001) // =======================================================
(PID.TID 0000.0001) >#
(PID.TID 0000.0001) > &ATM_PHYS_PARM01
(PID.TID 0000.0001) >#atmPhys_addTendT=.FALSE.,
(PID.TID 0000.0001) >#atmPhys_addTendS=.FALSE.,
(PID.TID 0000.0001) >#atmPhys_addTendU=.FALSE.,
(PID.TID 0000.0001) >#atmPhys_addTendV=.FALSE.,
(PID.TID 0000.0001) > atmPhys_tauDampUV = 86400.,
(PID.TID 0000.0001) > atmPhys_dampUVfac = 20*0., 0.125, 0.25, 0.5, 1., 2., 4.,
(PID.TID 0000.0001) >#- initial SST file:
(PID.TID 0000.0001) > atmPhys_SSTFile='SST_APE_1.bin',
(PID.TID 0000.0001) >#- Q-flux file:
(PID.TID 0000.0001) >#atmPhys_QflxFile='Qflux_w90.bin',
(PID.TID 0000.0001) >#- update SST (default = False = keep the same SST):
(PID.TID 0000.0001) >#atmPhys_stepSST=.TRUE.,
(PID.TID 0000.0001) > /
(PID.TID 0000.0001) 
(PID.TID 0000.0001) ATM_PHYS_READPARMS: finished reading data.atm_phys
(PID.TID 0000.0001)  DIAGNOSTICS_READPARMS: opening data.diagnostics
(PID.TID 0000.0001)  OPEN_COPY_DATA_FILE: opening file data.diagnostics
(PID.TID 0000.0001) // =======================================================
(PID.TID 0000.0001) // Parameter file "data.diagnostics"
(PID.TID 0000.0001) // =======================================================
(PID.TID 0000.0001) ># Diagnostic Package Choices
(PID.TID 0000.0001) >#--------------------
(PID.TID 0000.0001) >#  dumpAtLast (logical): always write output at the end of simulation (default=F)
(PID.TID 0000.0001) >#  diag_mnc   (logical): write to NetCDF files (default=useMNC)
(PID.TID 0000.0001) >#--for each output-stream:
(PID.TID 0000.0001) >#  fileName(n) : prefix of the output file name (max 80c long) for outp.stream n
(PID.TID 0000.0001) >#  frequency(n):< 0 : write snap-shot output every |frequency| seconds
(PID.TID 0000.0001) >#               > 0 : write time-average output every frequency seconds
(PID.TID 0000.0001) >#  timePhase(n)     : write at time = timePhase + multiple of |frequency|
(PID.TID 0000.0001) >#    averagingFreq  : frequency (in s) for periodic averaging interval
(PID.TID 0000.0001) >#    averagingPhase : phase     (in s) for periodic averaging interval
(PID.TID 0000.0001) >#    repeatCycle    : number of averaging intervals in 1 cycle
(PID.TID 0000.0001) >#  levels(:,n) : list of levels to write to file (Notes: declared as REAL)
(PID.TID 0000.0001) >#                when this entry is missing, select all common levels of this list
(PID.TID 0000.0001) >#  fields(:,n) : list of selected diagnostics fields (8.c) in outp.stream n
(PID.TID 0000.0001) >#                (see "available_diagnostics.log" file for the full list of diags)
(PID.TID 0000.0001) >#  missing_value(n) : missing value for real-type fields in output file "n"
(PID.TID 0000.0001) >#  fileFlags(n)     : specific code (8c string) for output file "n"
(PID.TID 0000.0001) >#--------------------
(PID.TID 0000.0001) > &DIAGNOSTICS_LIST
(PID.TID 0000.0001) ># dumpAtLast   = .TRUE.,
(PID.TID 0000.0001) ># diag_mnc     = .FALSE.,
(PID.TID 0000.0001) >#--
(PID.TID 0000.0001) >  fields(1:16,1) = 'ETAN    ','ETANSQ  ','DETADT2 ','AtPhCAPE','AtPhCnvP',
(PID.TID 0000.0001) >                   'AtPhLscP','AtPhSens','AtPhEvap','AtPhTauX','AtPhTauY',
(PID.TID 0000.0001) >                   'AtPh_SST','AtPhInSR','AtPhOLR ',
(PID.TID 0000.0001) >                   'AtPhNSSR','AtPhDSLR','AtPhUSLR',
(PID.TID 0000.0001) >   fileName(1) = 'surfDiag',
(PID.TID 0000.0001) ># fileFlags(1) = 'D       ',
(PID.TID 0000.0001) ># frequency(1) = 311040000.,
(PID.TID 0000.0001) >  frequency(1) = 6220800000.,
(PID.TID 0000.0001) >   averagingFreq(1) = 2592000.,
(PID.TID 0000.0001) >     repeatCycle(1) = 12,
(PID.TID 0000.0001) ># frequency(1) = 432000.,
(PID.TID 0000.0001) >  fields(1:20,2) = 'UVEL    ','VVEL    ','WVEL    ','THETA   ','SALT    ',
(PID.TID 0000.0001) >                   'UVELSQ  ','VVELSQ  ','WVELSQ  ','THETASQ ','SALTSQ  ',
(PID.TID 0000.0001) >                   'UVELMASS','VVELMASS','UV_VEL_C','RELHUM  ',
(PID.TID 0000.0001) >                   'ADVx_TH ','ADVy_TH ','ADVr_TH ',
(PID.TID 0000.0001) >                   'ADVx_SLT','ADVy_SLT','ADVr_SLT',
(PID.TID 0000.0001) >#                  'AtPhdTdt','AtPhdQdt','AtPhdUdt','AtPhdVdt',
(PID.TID 0000.0001) >#                  'AtPhdtTg','AtPhdtQg','AtPhDifT','AtPhDifM',
(PID.TID 0000.0001) >#                  'SHAP_dU ','MoistCor',
(PID.TID 0000.0001) >   fileName(2) = 'dynDiag',
(PID.TID 0000.0001) ># frequency(2) = 311040000.,
(PID.TID 0000.0001) >  frequency(2) = 6220800000.,
(PID.TID 0000.0001) >   averagingFreq(2) = 7776000.,
(PID.TID 0000.0001) >  averagingPhase(2) =-2592000.,
(PID.TID 0000.0001) >     repeatCycle(2) = 4,
(PID.TID 0000.0001) ># frequency(2) = 432000.,
(PID.TID 0000.0001) > /
(PID.TID 0000.0001) >
(PID.TID 0000.0001) >#--------------------
(PID.TID 0000.0001) ># Parameter for Diagnostics of per level statistics:
(PID.TID 0000.0001) >#--------------------
(PID.TID 0000.0001) >#  diagSt_mnc (logical): write stat-diags to NetCDF files (default=diag_mnc)
(PID.TID 0000.0001) >#  diagSt_regMaskFile : file containing the region-mask to read-in
(PID.TID 0000.0001) >#  nSetRegMskFile   : number of region-mask sets within the region-mask file
(PID.TID 0000.0001) >#  set_regMask(i)   : region-mask set-index that identifies the region "i"
(PID.TID 0000.0001) >#  val_regMask(i)   : region "i" identifier value in the region mask
(PID.TID 0000.0001) >#--for each output-stream:
(PID.TID 0000.0001) >#  stat_fName(n) : prefix of the output file name (max 80c long) for outp.stream n
(PID.TID 0000.0001) >#  stat_freq(n):< 0 : write snap-shot output every |stat_freq| seconds
(PID.TID 0000.0001) >#               > 0 : write time-average output every stat_freq seconds
(PID.TID 0000.0001) >#  stat_phase(n)    : write at time = stat_phase + multiple of |stat_freq|
(PID.TID 0000.0001) >#  stat_region(:,n) : list of "regions" (default: 1 region only=global)
(PID.TID 0000.0001) >#  stat_fields(:,n) : list of selected diagnostics fields (8.c) in outp.stream n
(PID.TID 0000.0001) >#                (see "available_diagnostics.log" file for the full list of diags)
(PID.TID 0000.0001) >#--------------------
(PID.TID 0000.0001) > &DIAG_STATIS_PARMS
(PID.TID 0000.0001) > stat_fields(1:11,1) = 'ETAN    ','THETA   ','SALT    ','RELHUM  ',
(PID.TID 0000.0001) >                       'UE_VEL_C','VN_VEL_C','WVEL    ',
(PID.TID 0000.0001) >                       'AtPhdTdt','AtPhdQdt','AtPhdUdt','AtPhdVdt',
(PID.TID 0000.0001) >  stat_fName(1) = 'dynStDiag',
(PID.TID 0000.0001) >   stat_freq(1) = 864000.,
(PID.TID 0000.0001) >#  stat_freq(1) = 43200.,
(PID.TID 0000.0001) >  stat_phase(1) = 0.,
(PID.TID 0000.0001) > stat_fields(1:7,2)  = 'AtPhDifT','AtPhDifM','AtPhDisH',
(PID.TID 0000.0001) >                       'AtPhdtTg','AtPhdtQg','SHAP_dKE','MoistCor',
(PID.TID 0000.0001) >  stat_fName(2) = 'diffStDiag',
(PID.TID 0000.0001) >   stat_freq(2) = 864000.,
(PID.TID 0000.0001) >#  stat_freq(2) = 43200.,
(PID.TID 0000.0001) ># stat_phase(2) = 0.,
(PID.TID 0000.0001) > stat_fields(1:13,3) = 'AtPhSens','AtPhEvap','AtPhTauX','AtPhTauY',
(PID.TID 0000.0001) >                       'AtPhCAPE','AtPhCnvP','AtPhLscP',
(PID.TID 0000.0001) >                       'AtPh_SST','AtPhInSR','AtPhOLR ',
(PID.TID 0000.0001) >                       'AtPhNSSR','AtPhDSLR','AtPhUSLR',
(PID.TID 0000.0001) >  stat_fName(3) = 'flxStDiag',
(PID.TID 0000.0001) >   stat_freq(3) = 864000.,
(PID.TID 0000.0001) >#  stat_freq(3) = 43200.,
(PID.TID 0000.0001) >  stat_phase(3) = 0.,
(PID.TID 0000.0001) > /
(PID.TID 0000.0001) >
(PID.TID 0000.0001) 
(PID.TID 0000.0001) S/R DIAGNOSTICS_READPARMS, read namelist "diagnostics_list": start
(PID.TID 0000.0001) S/R DIAGNOSTICS_READPARMS, read namelist "diagnostics_list": OK
(PID.TID 0000.0001) S/R DIAGNOSTICS_READPARMS, read namelist "DIAG_STATIS_PARMS": start
(PID.TID 0000.0001) S/R DIAGNOSTICS_READPARMS, read namelist "DIAG_STATIS_PARMS": OK
(PID.TID 0000.0001)  DIAGNOSTICS_READPARMS: global parameter summary:
(PID.TID 0000.0001)  dumpAtLast = /* always write time-ave diags at the end */
(PID.TID 0000.0001)                   F
(PID.TID 0000.0001)     ;
(PID.TID 0000.0001)  diag_mnc =   /* write NetCDF output files */
(PID.TID 0000.0001)                   F
(PID.TID 0000.0001)     ;
(PID.TID 0000.0001)  useMissingValue = /* put MissingValue where mask = 0 */
(PID.TID 0000.0001)                   F
(PID.TID 0000.0001)     ;
(PID.TID 0000.0001)  diagCG_maxIters = /* max number of iters in diag_cg2d */
(PID.TID 0000.0001)                     200
(PID.TID 0000.0001)     ;
(PID.TID 0000.0001)  diagCG_resTarget = /* residual target for diag_cg2d */
(PID.TID 0000.0001)                 1.000000000000000E-07
(PID.TID 0000.0001)     ;
(PID.TID 0000.0001) -----------------------------------------------------
(PID.TID 0000.0001)  DIAGNOSTICS_READPARMS: active diagnostics summary:
(PID.TID 0000.0001) -----------------------------------------------------
(PID.TID 0000.0001) Creating Output Stream: surfDiag
(PID.TID 0000.0001) Output Frequency: 6220800000.000000 ; Phase:           0.000000
(PID.TID 0000.0001)  Averaging Freq.:    2592000.000000 , Phase:           0.000000 , Cycle:  12
(PID.TID 0000.0001)  missing value: -9.990000000000E+02
(PID.TID 0000.0001)  Levels:    will be set later
(PID.TID 0000.0001)  Fields:    ETAN     ETANSQ   DETADT2  AtPhCAPE AtPhCnvP AtPhLscP AtPhSens AtPhEvap AtPhTauX AtPhTauY
(PID.TID 0000.0001)  Fields:    AtPh_SST AtPhInSR AtPhOLR  AtPhNSSR AtPhDSLR AtPhUSLR
(PID.TID 0000.0001) Creating Output Stream: dynDiag
(PID.TID 0000.0001) Output Frequency: 6220800000.000000 ; Phase:           0.000000
(PID.TID 0000.0001)  Averaging Freq.:    7776000.000000 , Phase:    -2592000.000000 , Cycle:   4
(PID.TID 0000.0001)  missing value: -9.990000000000E+02
(PID.TID 0000.0001)  Levels:    will be set later
(PID.TID 0000.0001)  Fields:    UVEL     VVEL     WVEL     THETA    SALT     UVELSQ   VVELSQ   WVELSQ   THETASQ  SALTSQ
(PID.TID 0000.0001)  Fields:    UVELMASS VVELMASS UV_VEL_C RELHUM   ADVx_TH  ADVy_TH  ADVr_TH  ADVx_SLT ADVy_SLT ADVr_SLT
(PID.TID 0000.0001) -----------------------------------------------------
(PID.TID 0000.0001)  DIAGNOSTICS_READPARMS: statistics diags. summary:
(PID.TID 0000.0001) Creating Stats. Output Stream: dynStDiag
(PID.TID 0000.0001) Output Frequency:     864000.000000 ; Phase:           0.000000
(PID.TID 0000.0001)  Regions:   0
(PID.TID 0000.0001)  Fields:    ETAN     THETA    SALT     RELHUM   UE_VEL_C VN_VEL_C WVEL     AtPhdTdt AtPhdQdt AtPhdUdt
(PID.TID 0000.0001)  Fields:    AtPhdVdt
(PID.TID 0000.0001) Creating Stats. Output Stream: diffStDiag
(PID.TID 0000.0001) Output Frequency:     864000.000000 ; Phase:           0.000000
(PID.TID 0000.0001)  Regions:   0
(PID.TID 0000.0001)  Fields:    AtPhDifT AtPhDifM AtPhDisH AtPhdtTg AtPhdtQg SHAP_dKE MoistCor
(PID.TID 0000.0001) Creating Stats. Output Stream: flxStDiag
(PID.TID 0000.0001) Output Frequency:     864000.000000 ; Phase:           0.000000
(PID.TID 0000.0001)  Regions:   0
(PID.TID 0000.0001)  Fields:    AtPhSens AtPhEvap AtPhTauX AtPhTauY AtPhCAPE AtPhCnvP AtPhLscP AtPh_SST AtPhInSR AtPhOLR
(PID.TID 0000.0001)  Fields:    AtPhNSSR AtPhDSLR AtPhUSLR
(PID.TID 0000.0001) -----------------------------------------------------
(PID.TID 0000.0001) 
(PID.TID 0000.0001)  CPL_READPARMS: opening data.cpl
(PID.TID 0000.0001)  OPEN_COPY_DATA_FILE: opening file data.cpl
(PID.TID 0000.0001) // =======================================================
(PID.TID 0000.0001) // Parameter file "data.cpl"
(PID.TID 0000.0001) // =======================================================
(PID.TID 0000.0001) ># Coupling package parameters, ATM component:
(PID.TID 0000.0001) >#     cpl_oldPickup  :: restart from an old pickup (= until ckpt 59h)
(PID.TID 0000.0001) >#     useImportMxlD  :: True => use Imported Mix.Layer Detph from coupler
(PID.TID 0000.0001) >#     useImportSST   :: True => use the Imported SST from coupler
(PID.TID 0000.0001) >#     useImportSSS   :: True => use the Imported SSS from coupler
(PID.TID 0000.0001) >#     useImportVsq   :: True => use the Imported Surf. velocity^2
(PID.TID 0000.0001) >#     cpl_atmSendFrq :: Frequency^-1 for sending data to coupler (s)
(PID.TID 0000.0001) >#     maxNumberPrint :: max number of printed Exp/Imp messages
(PID.TID 0000.0001) > &CPL_ATM_PARAM
(PID.TID 0000.0001) ># cpl_oldPickup=.TRUE.,
(PID.TID 0000.0001) >  useImportMxlD=.FALSE.,
(PID.TID 0000.0001) ># useImportSST =.FALSE.,
(PID.TID 0000.0001) >  useImportSSS =.FALSE.,
(PID.TID 0000.0001) >  useImportVsq =.FALSE.,
(PID.TID 0000.0001) ># useImportFlxCO2=.FALSE.,
(PID.TID 0000.0001) >  cpl_atmSendFrq=2880.,
(PID.TID 0000.0001) > /
(PID.TID 0000.0001) 
(PID.TID 0000.0001)  CPL_READPARMS: finished reading data.cpl
(PID.TID 0000.0001) 
(PID.TID 0000.0001) // ===================================
(PID.TID 0000.0001) // Coupling package parameters :
(PID.TID 0000.0001) // ===================================
(PID.TID 0000.0001) cpl_oldPickup = /* restart from old pickup on/off flag */
(PID.TID 0000.0001)                   F
(PID.TID 0000.0001)     ;
(PID.TID 0000.0001) useImportMxlD = /* use Imported MxL. Depth from Coupler flag */
(PID.TID 0000.0001)                   F
(PID.TID 0000.0001)     ;
(PID.TID 0000.0001) useImportSST = /* use Imported SST from Coupler on/off flag */
(PID.TID 0000.0001)                   T
(PID.TID 0000.0001)     ;
(PID.TID 0000.0001) useImportSSS = /* use Imported SSS from Coupler on/off flag */
(PID.TID 0000.0001)                   F
(PID.TID 0000.0001)     ;
(PID.TID 0000.0001) useImportVsq = /* use Imported surf.Vel^2 from Coupler flag */
(PID.TID 0000.0001)                   F
(PID.TID 0000.0001)     ;
(PID.TID 0000.0001) useImportFlxCO2 = /* use Imported air-sea CO2 flux from Coupler flag */
(PID.TID 0000.0001)                   F
(PID.TID 0000.0001)     ;
(PID.TID 0000.0001) cpl_atmSendFrq = /* Frequency^o-1 for sending data to Coupler (s) */
(PID.TID 0000.0001)                 2.880000000000000E+03
(PID.TID 0000.0001)     ;
(PID.TID 0000.0001) cplSendFrq_iter = /* send data to coupler every "cplSendFrq" iter */
(PID.TID 0000.0001)                       8
(PID.TID 0000.0001)     ;
(PID.TID 0000.0001) maxNumberPrint = /* max number of printed Exp/Imp messages */
(PID.TID 0000.0001)                     100
(PID.TID 0000.0001)     ;
(PID.TID 0000.0001) SET_PARMS: done
(PID.TID 0000.0001) Enter INI_VERTICAL_GRID: setInterFDr=    T ; setCenterDr=    F
(PID.TID 0000.0001) tile:   1 ; Read from file dxC1_dXYa.face001.bin
(PID.TID 0000.0001)   => xC yC dxF dyF rA xG yG dxV dyU rAz dxC dyC rAw rAs dxG dyG AngleCS AngleSN
(PID.TID 0000.0001) tile:   2 ; Read from file dxC1_dXYa.face002.bin
(PID.TID 0000.0001)   => xC yC dxF dyF rA xG yG dxV dyU rAz dxC dyC rAw rAs dxG dyG AngleCS AngleSN
(PID.TID 0000.0001) tile:   3 ; Read from file dxC1_dXYa.face003.bin
(PID.TID 0000.0001)   => xC yC dxF dyF rA xG yG dxV dyU rAz dxC dyC rAw rAs dxG dyG AngleCS AngleSN
(PID.TID 0000.0001) tile:   4 ; Read from file dxC1_dXYa.face004.bin
(PID.TID 0000.0001)   => xC yC dxF dyF rA xG yG dxV dyU rAz dxC dyC rAw rAs dxG dyG AngleCS AngleSN
(PID.TID 0000.0001) tile:   5 ; Read from file dxC1_dXYa.face005.bin
(PID.TID 0000.0001)   => xC yC dxF dyF rA xG yG dxV dyU rAz dxC dyC rAw rAs dxG dyG AngleCS AngleSN
(PID.TID 0000.0001) tile:   6 ; Read from file dxC1_dXYa.face006.bin
(PID.TID 0000.0001)   => xC yC dxF dyF rA xG yG dxV dyU rAz dxC dyC rAw rAs dxG dyG AngleCS AngleSN
(PID.TID 0000.0001) %MON XC_max                       =   1.7854351589505E+02
(PID.TID 0000.0001) %MON XC_min                       =  -1.7854351589505E+02
(PID.TID 0000.0001) %MON XC_mean                      =  -4.6999441375798E-15
(PID.TID 0000.0001) %MON XC_sd                        =   1.0355545336287E+02
(PID.TID 0000.0001) %MON XG_max                       =   1.8000000000000E+02
(PID.TID 0000.0001) %MON XG_min                       =  -1.7708797161002E+02
(PID.TID 0000.0001) %MON XG_mean                      =   1.8603515625000E+00
(PID.TID 0000.0001) %MON XG_sd                        =   1.0357130300504E+02
(PID.TID 0000.0001) %MON DXC_max                      =   3.2375185836900E+05
(PID.TID 0000.0001) %MON DXC_min                      =   1.1353730006923E+05
(PID.TID 0000.0001) %MON DXC_mean                     =   2.8606102525036E+05
(PID.TID 0000.0001) %MON DXC_sd                       =   3.4020997630307E+04
(PID.TID 0000.0001) %MON DXF_max                      =   3.2369947500827E+05
(PID.TID 0000.0001) %MON DXF_min                      =   1.2020820513318E+05
(PID.TID 0000.0001) %MON DXF_mean                     =   2.8605437324820E+05
(PID.TID 0000.0001) %MON DXF_sd                       =   3.4050524252539E+04
(PID.TID 0000.0001) %MON DXG_max                      =   3.2375195872773E+05
(PID.TID 0000.0001) %MON DXG_min                      =   1.0098378008791E+05
(PID.TID 0000.0001) %MON DXG_mean                     =   2.8603818508931E+05
(PID.TID 0000.0001) %MON DXG_sd                       =   3.4140406908005E+04
(PID.TID 0000.0001) %MON DXV_max                      =   3.2380418162750E+05
(PID.TID 0000.0001) %MON DXV_min                      =   8.0152299824136E+04
(PID.TID 0000.0001) %MON DXV_mean                     =   2.8603970633619E+05
(PID.TID 0000.0001) %MON DXV_sd                       =   3.4145142117723E+04
(PID.TID 0000.0001) %MON YC_max                       =   8.7940663871962E+01
(PID.TID 0000.0001) %MON YC_min                       =  -8.7940663871962E+01
(PID.TID 0000.0001) %MON YC_mean                      =   0.0000000000000E+00
(PID.TID 0000.0001) %MON YC_sd                        =   3.8676242969072E+01
(PID.TID 0000.0001) %MON YG_max                       =   9.0000000000000E+01
(PID.TID 0000.0001) %MON YG_min                       =  -9.0000000000000E+01
(PID.TID 0000.0001) %MON YG_mean                      =  -1.1842378929335E-15
(PID.TID 0000.0001) %MON YG_sd                        =   3.8676895860710E+01
(PID.TID 0000.0001) %MON DYC_max                      =   3.2375185836900E+05
(PID.TID 0000.0001) %MON DYC_min                      =   1.1353730006923E+05
(PID.TID 0000.0001) %MON DYC_mean                     =   2.8606102525036E+05
(PID.TID 0000.0001) %MON DYC_sd                       =   3.4020997630307E+04
(PID.TID 0000.0001) %MON DYF_max                      =   3.2369947500827E+05
(PID.TID 0000.0001) %MON DYF_min                      =   1.2020820513318E+05
(PID.TID 0000.0001) %MON DYF_mean                     =   2.8605437324820E+05
(PID.TID 0000.0001) %MON DYF_sd                       =   3.4050524252539E+04
(PID.TID 0000.0001) %MON DYG_max                      =   3.2375195872773E+05
(PID.TID 0000.0001) %MON DYG_min                      =   1.0098378008791E+05
(PID.TID 0000.0001) %MON DYG_mean                     =   2.8603818508931E+05
(PID.TID 0000.0001) %MON DYG_sd                       =   3.4140406908005E+04
(PID.TID 0000.0001) %MON DYU_max                      =   3.2380418162750E+05
(PID.TID 0000.0001) %MON DYU_min                      =   8.0152299824136E+04
(PID.TID 0000.0001) %MON DYU_mean                     =   2.8603970633619E+05
(PID.TID 0000.0001) %MON DYU_sd                       =   3.4145142117723E+04
(PID.TID 0000.0001) %MON RA_max                       =   1.0474757731659E+11
(PID.TID 0000.0001) %MON RA_min                       =   1.5497867056722E+10
(PID.TID 0000.0001) %MON RA_mean                      =   8.2985711332657E+10
(PID.TID 0000.0001) %MON RA_sd                        =   1.7448591913787E+10
(PID.TID 0000.0001) %MON RAW_max                      =   1.0481529828871E+11
(PID.TID 0000.0001) %MON RAW_min                      =   1.1465425741966E+10
(PID.TID 0000.0001) %MON RAW_mean                     =   8.2985711332657E+10
(PID.TID 0000.0001) %MON RAW_sd                       =   1.7503889570793E+10
(PID.TID 0000.0001) %MON RAS_max                      =   1.0481529828871E+11
(PID.TID 0000.0001) %MON RAS_min                      =   1.1465425741966E+10
(PID.TID 0000.0001) %MON RAS_mean                     =   8.2985711332657E+10
(PID.TID 0000.0001) %MON RAS_sd                       =   1.7503889570793E+10
(PID.TID 0000.0001) %MON RAZ_max                      =   1.0484349334619E+11
(PID.TID 0000.0001) %MON RAZ_min                      =   8.8317900612505E+09
(PID.TID 0000.0001) %MON RAZ_mean                     =   8.2992246709235E+10
(PID.TID 0000.0001) %MON RAZ_sd                       =   1.7482297311044E+10
(PID.TID 0000.0001) %MON AngleCS_max                  =   9.9999994756719E-01
(PID.TID 0000.0001) %MON AngleCS_min                  =  -9.9968286884824E-01
(PID.TID 0000.0001) %MON AngleCS_mean                 =   3.3078922539000E-01
(PID.TID 0000.0001) %MON AngleCS_sd                   =   6.2496278958502E-01
(PID.TID 0000.0001) %MON AngleSN_max                  =   9.9968286884824E-01
(PID.TID 0000.0001) %MON AngleSN_min                  =  -9.9999994756719E-01
(PID.TID 0000.0001) %MON AngleSN_mean                 =  -3.3078922539000E-01
(PID.TID 0000.0001) %MON AngleSN_sd                   =   6.2496278958502E-01
(PID.TID 0000.0001) 
(PID.TID 0000.0001) SET_REF_STATE: PhiRef/g [m] at level Center (integer)
(PID.TID 0000.0001)                      and at level Interface (half-int.) :
(PID.TID 0000.0001)  K=  0.5  ;  r=       100000.0  ;  phiRef/g=        0.000
(PID.TID 0000.0001)  K=  1.0  ;  r=        99250.0  ;  phiRef/g=       65.000
(PID.TID 0000.0001)  K=  1.5  ;  r=        98500.0  ;  phiRef/g=      144.206
(PID.TID 0000.0001)  K=  2.0  ;  r=        97439.0  ;  phiRef/g=      223.413
(PID.TID 0000.0001)  K=  2.5  ;  r=        96378.0  ;  phiRef/g=      337.236
(PID.TID 0000.0001)  K=  3.0  ;  r=        94878.0  ;  phiRef/g=      451.060
(PID.TID 0000.0001)  K=  3.5  ;  r=        93378.0  ;  phiRef/g=      615.802
(PID.TID 0000.0001)  K=  4.0  ;  r=        91257.0  ;  phiRef/g=      780.544
(PID.TID 0000.0001)  K=  4.5  ;  r=        89136.0  ;  phiRef/g=     1021.698
(PID.TID 0000.0001)  K=  5.0  ;  r=        86136.0  ;  phiRef/g=     1262.852
(PID.TID 0000.0001)  K=  5.5  ;  r=        83136.0  ;  phiRef/g=     1604.545
(PID.TID 0000.0001)  K=  6.0  ;  r=        79236.0  ;  phiRef/g=     1946.238
(PID.TID 0000.0001)  K=  6.5  ;  r=        75336.0  ;  phiRef/g=     2394.973
(PID.TID 0000.0001)  K=  7.0  ;  r=        70786.0  ;  phiRef/g=     2843.709
(PID.TID 0000.0001)  K=  7.5  ;  r=        66236.0  ;  phiRef/g=     3381.201
(PID.TID 0000.0001)  K=  8.0  ;  r=        61536.0  ;  phiRef/g=     3918.694
(PID.TID 0000.0001)  K=  8.5  ;  r=        56836.0  ;  phiRef/g=     4523.627
(PID.TID 0000.0001)  K=  9.0  ;  r=        52196.0  ;  phiRef/g=     5128.560
(PID.TID 0000.0001)  K=  9.5  ;  r=        47556.0  ;  phiRef/g=     5777.201
(PID.TID 0000.0001)  K= 10.0  ;  r=        43356.0  ;  phiRef/g=     6425.843
(PID.TID 0000.0001)  K= 10.5  ;  r=        39156.0  ;  phiRef/g=     7072.216
(PID.TID 0000.0001)  K= 11.0  ;  r=        35666.0  ;  phiRef/g=     7718.589
(PID.TID 0000.0001)  K= 11.5  ;  r=        32176.0  ;  phiRef/g=     8336.533
(PID.TID 0000.0001)  K= 12.0  ;  r=        29276.0  ;  phiRef/g=     8954.478
(PID.TID 0000.0001)  K= 12.5  ;  r=        26376.0  ;  phiRef/g=     9546.297
(PID.TID 0000.0001)  K= 13.0  ;  r=        23966.0  ;  phiRef/g=    10138.117
(PID.TID 0000.0001)  K= 13.5  ;  r=        21556.0  ;  phiRef/g=    10706.062
(PID.TID 0000.0001)  K= 14.0  ;  r=        19554.0  ;  phiRef/g=    11274.007
(PID.TID 0000.0001)  K= 14.5  ;  r=        17552.0  ;  phiRef/g=    11820.513
(PID.TID 0000.0001)  K= 15.0  ;  r=        15888.0  ;  phiRef/g=    12367.018
(PID.TID 0000.0001)  K= 15.5  ;  r=        14224.0  ;  phiRef/g=    12894.813
(PID.TID 0000.0001)  K= 16.0  ;  r=        12841.0  ;  phiRef/g=    13422.607
(PID.TID 0000.0001)  K= 16.5  ;  r=        11458.0  ;  phiRef/g=    13934.405
(PID.TID 0000.0001)  K= 17.0  ;  r=        10309.0  ;  phiRef/g=    14446.203
(PID.TID 0000.0001)  K= 17.5  ;  r=         9160.0  ;  phiRef/g=    14945.188
(PID.TID 0000.0001)  K= 18.0  ;  r=         8205.0  ;  phiRef/g=    15444.173
(PID.TID 0000.0001)  K= 18.5  ;  r=         7250.0  ;  phiRef/g=    15934.021
(PID.TID 0000.0001)  K= 19.0  ;  r=         6457.0  ;  phiRef/g=    16423.869
(PID.TID 0000.0001)  K= 19.5  ;  r=         5664.0  ;  phiRef/g=    16909.194
(PID.TID 0000.0001)  K= 20.0  ;  r=         5005.0  ;  phiRef/g=    17394.518
(PID.TID 0000.0001)  K= 20.5  ;  r=         4346.0  ;  phiRef/g=    17881.933
(PID.TID 0000.0001)  K= 21.0  ;  r=         3798.0  ;  phiRef/g=    18369.347
(PID.TID 0000.0001)  K= 21.5  ;  r=         3250.0  ;  phiRef/g=    18867.727
(PID.TID 0000.0001)  K= 22.0  ;  r=         2795.0  ;  phiRef/g=    19366.107
(PID.TID 0000.0001)  K= 22.5  ;  r=         2340.0  ;  phiRef/g=    19889.510
(PID.TID 0000.0001)  K= 23.0  ;  r=         1962.0  ;  phiRef/g=    20412.912
(PID.TID 0000.0001)  K= 23.5  ;  r=         1584.0  ;  phiRef/g=    20987.805
(PID.TID 0000.0001)  K= 24.0  ;  r=         1270.0  ;  phiRef/g=    21562.697
(PID.TID 0000.0001)  K= 24.5  ;  r=          956.0  ;  phiRef/g=    22250.139
(PID.TID 0000.0001)  K= 25.0  ;  r=          695.0  ;  phiRef/g=    22937.580
(PID.TID 0000.0001)  K= 25.5  ;  r=          434.0  ;  phiRef/g=    23972.294
(PID.TID 0000.0001)  K= 26.0  ;  r=          217.0  ;  phiRef/g=    25007.007
(PID.TID 0000.0001)  K= 26.5  ;  r=            0.0  ;  phiRef/g=    30251.966
(PID.TID 0000.0001) // =======================================================
(PID.TID 0000.0001) // Field Model R_low (ini_masks_etc)
(PID.TID 0000.0001) // CMIN =          1.000000000000000E+32
(PID.TID 0000.0001) // CMAX =         -1.000000000000000E+32
(PID.TID 0000.0001) // CINT =          0.000000000000000E+00
(PID.TID 0000.0001) // SYMBOLS (CMIN->CMAX): -abcdefghijklmnopqrstuvwxyz+
(PID.TID 0000.0001) //                  0.0: .
(PID.TID 0000.0001) // RANGE I (Lo:Hi:Step):(    -3:   196:     1)
(PID.TID 0000.0001) // RANGE J (Lo:Hi:Step):(    36:    -3:    -1)
(PID.TID 0000.0001) // RANGE K (Lo:Hi:Step):(   1:   1:   1)
(PID.TID 0000.0001) // =======================================================
(PID.TID 0000.0001) // =======================================================
(PID.TID 0000.0001) // END OF FIELD                                          =
(PID.TID 0000.0001) // =======================================================
(PID.TID 0000.0001) 
(PID.TID 0000.0001) // =======================================================
(PID.TID 0000.0001) // Field Model Ro_surf (ini_masks_etc)
(PID.TID 0000.0001) // CMIN =          1.000000000000000E+05
(PID.TID 0000.0001) // CMAX =          1.000000000000000E+05
(PID.TID 0000.0001) // CINT =          0.000000000000000E+00
(PID.TID 0000.0001) // SYMBOLS (CMIN->CMAX): -abcdefghijklmnopqrstuvwxyz+
(PID.TID 0000.0001) //                  0.0: .
(PID.TID 0000.0001) // RANGE I (Lo:Hi:Step):(    -3:   196:     1)
(PID.TID 0000.0001) // RANGE J (Lo:Hi:Step):(    36:    -3:    -1)
(PID.TID 0000.0001) // RANGE K (Lo:Hi:Step):(   1:   1:   1)
(PID.TID 0000.0001) // =======================================================
(PID.TID 0000.0001) // =======================================================
(PID.TID 0000.0001) // END OF FIELD                                          =
(PID.TID 0000.0001) // =======================================================
(PID.TID 0000.0001) 
(PID.TID 0000.0001) // =======================================================
(PID.TID 0000.0001) // Field hFacC at iteration          0
(PID.TID 0000.0001) // CMIN =          1.000000000000000E+00
(PID.TID 0000.0001) // CMAX =          1.000000000000000E+00
(PID.TID 0000.0001) // CINT =          0.000000000000000E+00
(PID.TID 0000.0001) // SYMBOLS (CMIN->CMAX): -abcdefghijklmnopqrstuvwxyz+
(PID.TID 0000.0001) //                  0.0: .
(PID.TID 0000.0001) // RANGE I (Lo:Hi:Step):(    -3:   196:     1)
(PID.TID 0000.0001) // RANGE J (Lo:Hi:Step):(    36:    -3:    -1)
(PID.TID 0000.0001) // RANGE K (Lo:Hi:Step):(   1:   1:   1)
(PID.TID 0000.0001) // =======================================================
(PID.TID 0000.0001) // =======================================================
(PID.TID 0000.0001) // END OF FIELD                                          =
(PID.TID 0000.0001) // =======================================================
(PID.TID 0000.0001) 
(PID.TID 0000.0001) // =======================================================
(PID.TID 0000.0001) // Field hFacW at iteration          0
(PID.TID 0000.0001) // CMIN =          1.000000000000000E+00
(PID.TID 0000.0001) // CMAX =          1.000000000000000E+00
(PID.TID 0000.0001) // CINT =          0.000000000000000E+00
(PID.TID 0000.0001) // SYMBOLS (CMIN->CMAX): -abcdefghijklmnopqrstuvwxyz+
(PID.TID 0000.0001) //                  0.0: .
(PID.TID 0000.0001) // RANGE I (Lo:Hi:Step):(    -3:   196:     1)
(PID.TID 0000.0001) // RANGE J (Lo:Hi:Step):(    36:    -3:    -1)
(PID.TID 0000.0001) // RANGE K (Lo:Hi:Step):(   1:   1:   1)
(PID.TID 0000.0001) // =======================================================
(PID.TID 0000.0001) // =======================================================
(PID.TID 0000.0001) // END OF FIELD                                          =
(PID.TID 0000.0001) // =======================================================
(PID.TID 0000.0001) 
(PID.TID 0000.0001) // =======================================================
(PID.TID 0000.0001) // Field hFacS at iteration          0
(PID.TID 0000.0001) // CMIN =          1.000000000000000E+00
(PID.TID 0000.0001) // CMAX =          1.000000000000000E+00
(PID.TID 0000.0001) // CINT =          0.000000000000000E+00
(PID.TID 0000.0001) // SYMBOLS (CMIN->CMAX): -abcdefghijklmnopqrstuvwxyz+
(PID.TID 0000.0001) //                  0.0: .
(PID.TID 0000.0001) // RANGE I (Lo:Hi:Step):(    -3:   196:     1)
(PID.TID 0000.0001) // RANGE J (Lo:Hi:Step):(    36:    -3:    -1)
(PID.TID 0000.0001) // RANGE K (Lo:Hi:Step):(   1:   1:   1)
(PID.TID 0000.0001) // =======================================================
(PID.TID 0000.0001) // =======================================================
(PID.TID 0000.0001) // END OF FIELD                                          =
(PID.TID 0000.0001) // =======================================================
(PID.TID 0000.0001) 
(PID.TID 0000.0001) GAD_INIT_FIXED: GAD_OlMinSize=  2  0  2
(PID.TID 0000.0001) 
(PID.TID 0000.0001) // ===================================
(PID.TID 0000.0001) // GAD parameters :
(PID.TID 0000.0001) // ===================================
(PID.TID 0000.0001) tempAdvScheme =   /* Temp. Horiz.Advection scheme selector */
(PID.TID 0000.0001)                       2
(PID.TID 0000.0001)     ;
(PID.TID 0000.0001) tempVertAdvScheme =   /* Temp. Vert. Advection scheme selector */
(PID.TID 0000.0001)                       2
(PID.TID 0000.0001)     ;
(PID.TID 0000.0001) tempMultiDimAdvec =   /* use Muti-Dim Advec method for Temp */
(PID.TID 0000.0001)                   F
(PID.TID 0000.0001)     ;
(PID.TID 0000.0001) tempSOM_Advection = /* use 2nd Order Moment Advection for Temp */
(PID.TID 0000.0001)                   F
(PID.TID 0000.0001)     ;
(PID.TID 0000.0001) AdamsBashforthGt = /* apply Adams-Bashforth extrapolation on Gt */
(PID.TID 0000.0001)                   T
(PID.TID 0000.0001)     ;
(PID.TID 0000.0001) AdamsBashforth_T = /* apply Adams-Bashforth extrapolation on Temp */
(PID.TID 0000.0001)                   F
(PID.TID 0000.0001)     ;
(PID.TID 0000.0001) saltAdvScheme =   /* Salt. Horiz.advection scheme selector */
(PID.TID 0000.0001)                      77
(PID.TID 0000.0001)     ;
(PID.TID 0000.0001) saltVertAdvScheme =   /* Salt. Vert. Advection scheme selector */
(PID.TID 0000.0001)                      77
(PID.TID 0000.0001)     ;
(PID.TID 0000.0001) saltMultiDimAdvec =   /* use Muti-Dim Advec method for Salt */
(PID.TID 0000.0001)                   T
(PID.TID 0000.0001)     ;
(PID.TID 0000.0001) saltSOM_Advection = /* use 2nd Order Moment Advection for Salt */
(PID.TID 0000.0001)                   F
(PID.TID 0000.0001)     ;
(PID.TID 0000.0001) AdamsBashforthGs = /* apply Adams-Bashforth extrapolation on Gs */
(PID.TID 0000.0001)                   F
(PID.TID 0000.0001)     ;
(PID.TID 0000.0001) AdamsBashforth_S = /* apply Adams-Bashforth extrapolation on Salt */
(PID.TID 0000.0001)                   F
(PID.TID 0000.0001)     ;
(PID.TID 0000.0001) // ===================================
(PID.TID 0000.0001) ATM_PHYS_INIT_FIXED: opening data.atm_gray
(PID.TID 0000.0001)  OPEN_COPY_DATA_FILE: opening file data.atm_gray
(PID.TID 0000.0001) // =======================================================
(PID.TID 0000.0001) // Parameter file "data.atm_gray"
(PID.TID 0000.0001) // =======================================================
(PID.TID 0000.0001) >
(PID.TID 0000.0001) > &atmosphere_nml
(PID.TID 0000.0001) >    turb = .TRUE.,
(PID.TID 0000.0001) >    ldry_convection = .false.,
(PID.TID 0000.0001) >    lwet_convection = .TRUE.,
(PID.TID 0000.0001) >    do_virtual = .false.,
(PID.TID 0000.0001) >    two_stream = .true.,
(PID.TID 0000.0001) >    mixed_layer_bc = .false.,
(PID.TID 0000.0001) >    roughness_heat = 0.05,
(PID.TID 0000.0001) >    roughness_moist = 0.05,
(PID.TID 0000.0001) >    roughness_mom = 0.05,
(PID.TID 0000.0001) > /
(PID.TID 0000.0001) >
(PID.TID 0000.0001) > &radiation_nml
(PID.TID 0000.0001) >  select_incSW  = 1,
(PID.TID 0000.0001) >  solar_constant= 1365.,
(PID.TID 0000.0001) ># yearLength=
(PID.TID 0000.0001) ># yearPhase =
(PID.TID 0000.0001) ># obliquity =
(PID.TID 0000.0001) >  del_sol=1.,
(PID.TID 0000.0001) ># ir_tau_eq=
(PID.TID 0000.0001) ># ir_tau_pole=
(PID.TID 0000.0001) >  atm_abs= 0.22,
(PID.TID 0000.0001) ># value that Ruth is using as default:
(PID.TID 0000.0001) ># atm_abs= 0.2486,
(PID.TID 0000.0001) ># sw_diff=
(PID.TID 0000.0001) ># linear_tau=
(PID.TID 0000.0001) ># del_sw=
(PID.TID 0000.0001) >  albedo_value=0.38,
(PID.TID 0000.0001) ># window=
(PID.TID 0000.0001) ># wv_exponent=
(PID.TID 0000.0001) ># solar_exponent=
(PID.TID 0000.0001) >  wv_exponent=0.,
(PID.TID 0000.0001) > /
(PID.TID 0000.0001) >
(PID.TID 0000.0001) > &lscale_cond_nml
(PID.TID 0000.0001) ># hc =
(PID.TID 0000.0001) ># do_evap=
(PID.TID 0000.0001) > /
(PID.TID 0000.0001) >
(PID.TID 0000.0001) > &dargan_bettsmiller_nml
(PID.TID 0000.0001) >#-- default:
(PID.TID 0000.0001) >#   tau_bm = 7200.,
(PID.TID 0000.0001) >#   rhbm   = 0.8,
(PID.TID 0000.0001) >#   do_virtual   = .FALSE.,
(PID.TID 0000.0001) >#   do_shallower = .FALSE.,
(PID.TID 0000.0001) >#   do_changeqref= .FALSE.,
(PID.TID 0000.0001) >#   do_envsat    = .FALSE.,
(PID.TID 0000.0001) >#   do_taucape   = .FALSE.,
(PID.TID 0000.0001) >#     capetaubm  = 900.,
(PID.TID 0000.0001) >#     tau_min    = 2400.,
(PID.TID 0000.0001) >#   do_bm_shift  = .FALSE.,
(PID.TID 0000.0001) >#-- POG choice:
(PID.TID 0000.0001) >#  rhbm = 0.7,
(PID.TID 0000.0001) >   do_virtual= .TRUE.,
(PID.TID 0000.0001) >   do_shallower= .TRUE.,
(PID.TID 0000.0001) > /
(PID.TID 0000.0001) >
(PID.TID 0000.0001) > &surface_flux_nml
(PID.TID 0000.0001) > /
(PID.TID 0000.0001) >
(PID.TID 0000.0001) > &vert_turb_driver_nml
(PID.TID 0000.0001) >#  do_shallow_conv, do_mellor_yamada,
(PID.TID 0000.0001) >#  gust_scheme, constant_gust, use_tau,
(PID.TID 0000.0001) >#  do_molecular_diffusion
(PID.TID 0000.0001) >  do_mellor_yamada=.FALSE.,
(PID.TID 0000.0001) > /
(PID.TID 0000.0001) >
(PID.TID 0000.0001) > &diffusivity_nml
(PID.TID 0000.0001) >#  fixed_depth, depth_0, frac_inner,
(PID.TID 0000.0001) >#  rich_crit_pbl, entr_ratio, parcel_buoy,
(PID.TID 0000.0001) >#  znom, free_atm_diff, free_atm_skyhi_diff,
(PID.TID 0000.0001) >#  pbl_mcm, rich_crit_diff, mix_len, rich_prandtl,
(PID.TID 0000.0001) >#  background_m, background_t, ampns, ampns_max,
(PID.TID 0000.0001) >#  do_virtual_non_mcm
(PID.TID 0000.0001) > /
(PID.TID 0000.0001) >
(PID.TID 0000.0001) > &monin_obukhov_nml
(PID.TID 0000.0001) > /
(PID.TID 0000.0001) >
(PID.TID 0000.0001) > &my25_turb_nml
(PID.TID 0000.0001) > /
(PID.TID 0000.0001) >
(PID.TID 0000.0001) > &shallow_conv_nml
(PID.TID 0000.0001) > /
(PID.TID 0000.0001) >
(PID.TID 0000.0001) > &mixed_layer_nml
(PID.TID 0000.0001) ># evaporation, qflux_amp, depth, qflux_width
(PID.TID 0000.0001) >  depth=5000.,
(PID.TID 0000.0001) > /
(PID.TID 0000.0001) 
(PID.TID 0000.0001) ATM_PHYS_INIT_FIXED: finished reading data.atm_gray
(PID.TID 0000.0001) MIXED_LAYER_INIT: opening data.atm_gray
(PID.TID 0000.0001)  OPEN_COPY_DATA_FILE: opening file data.atm_gray
(PID.TID 0000.0001) // =======================================================
(PID.TID 0000.0001) // Parameter file "data.atm_gray"
(PID.TID 0000.0001) // =======================================================
(PID.TID 0000.0001) >
(PID.TID 0000.0001) > &atmosphere_nml
(PID.TID 0000.0001) >    turb = .TRUE.,
(PID.TID 0000.0001) >    ldry_convection = .false.,
(PID.TID 0000.0001) >    lwet_convection = .TRUE.,
(PID.TID 0000.0001) >    do_virtual = .false.,
(PID.TID 0000.0001) >    two_stream = .true.,
(PID.TID 0000.0001) >    mixed_layer_bc = .false.,
(PID.TID 0000.0001) >    roughness_heat = 0.05,
(PID.TID 0000.0001) >    roughness_moist = 0.05,
(PID.TID 0000.0001) >    roughness_mom = 0.05,
(PID.TID 0000.0001) > /
(PID.TID 0000.0001) >
(PID.TID 0000.0001) > &radiation_nml
(PID.TID 0000.0001) >  select_incSW  = 1,
(PID.TID 0000.0001) >  solar_constant= 1365.,
(PID.TID 0000.0001) ># yearLength=
(PID.TID 0000.0001) ># yearPhase =
(PID.TID 0000.0001) ># obliquity =
(PID.TID 0000.0001) >  del_sol=1.,
(PID.TID 0000.0001) ># ir_tau_eq=
(PID.TID 0000.0001) ># ir_tau_pole=
(PID.TID 0000.0001) >  atm_abs= 0.22,
(PID.TID 0000.0001) ># value that Ruth is using as default:
(PID.TID 0000.0001) ># atm_abs= 0.2486,
(PID.TID 0000.0001) ># sw_diff=
(PID.TID 0000.0001) ># linear_tau=
(PID.TID 0000.0001) ># del_sw=
(PID.TID 0000.0001) >  albedo_value=0.38,
(PID.TID 0000.0001) ># window=
(PID.TID 0000.0001) ># wv_exponent=
(PID.TID 0000.0001) ># solar_exponent=
(PID.TID 0000.0001) >  wv_exponent=0.,
(PID.TID 0000.0001) > /
(PID.TID 0000.0001) >
(PID.TID 0000.0001) > &lscale_cond_nml
(PID.TID 0000.0001) ># hc =
(PID.TID 0000.0001) ># do_evap=
(PID.TID 0000.0001) > /
(PID.TID 0000.0001) >
(PID.TID 0000.0001) > &dargan_bettsmiller_nml
(PID.TID 0000.0001) >#-- default:
(PID.TID 0000.0001) >#   tau_bm = 7200.,
(PID.TID 0000.0001) >#   rhbm   = 0.8,
(PID.TID 0000.0001) >#   do_virtual   = .FALSE.,
(PID.TID 0000.0001) >#   do_shallower = .FALSE.,
(PID.TID 0000.0001) >#   do_changeqref= .FALSE.,
(PID.TID 0000.0001) >#   do_envsat    = .FALSE.,
(PID.TID 0000.0001) >#   do_taucape   = .FALSE.,
(PID.TID 0000.0001) >#     capetaubm  = 900.,
(PID.TID 0000.0001) >#     tau_min    = 2400.,
(PID.TID 0000.0001) >#   do_bm_shift  = .FALSE.,
(PID.TID 0000.0001) >#-- POG choice:
(PID.TID 0000.0001) >#  rhbm = 0.7,
(PID.TID 0000.0001) >   do_virtual= .TRUE.,
(PID.TID 0000.0001) >   do_shallower= .TRUE.,
(PID.TID 0000.0001) > /
(PID.TID 0000.0001) >
(PID.TID 0000.0001) > &surface_flux_nml
(PID.TID 0000.0001) > /
(PID.TID 0000.0001) >
(PID.TID 0000.0001) > &vert_turb_driver_nml
(PID.TID 0000.0001) >#  do_shallow_conv, do_mellor_yamada,
(PID.TID 0000.0001) >#  gust_scheme, constant_gust, use_tau,
(PID.TID 0000.0001) >#  do_molecular_diffusion
(PID.TID 0000.0001) >  do_mellor_yamada=.FALSE.,
(PID.TID 0000.0001) > /
(PID.TID 0000.0001) >
(PID.TID 0000.0001) > &diffusivity_nml
(PID.TID 0000.0001) >#  fixed_depth, depth_0, frac_inner,
(PID.TID 0000.0001) >#  rich_crit_pbl, entr_ratio, parcel_buoy,
(PID.TID 0000.0001) >#  znom, free_atm_diff, free_atm_skyhi_diff,
(PID.TID 0000.0001) >#  pbl_mcm, rich_crit_diff, mix_len, rich_prandtl,
(PID.TID 0000.0001) >#  background_m, background_t, ampns, ampns_max,
(PID.TID 0000.0001) >#  do_virtual_non_mcm
(PID.TID 0000.0001) > /
(PID.TID 0000.0001) >
(PID.TID 0000.0001) > &monin_obukhov_nml
(PID.TID 0000.0001) > /
(PID.TID 0000.0001) >
(PID.TID 0000.0001) > &my25_turb_nml
(PID.TID 0000.0001) > /
(PID.TID 0000.0001) >
(PID.TID 0000.0001) > &shallow_conv_nml
(PID.TID 0000.0001) > /
(PID.TID 0000.0001) >
(PID.TID 0000.0001) > &mixed_layer_nml
(PID.TID 0000.0001) ># evaporation, qflux_amp, depth, qflux_width
(PID.TID 0000.0001) >  depth=5000.,
(PID.TID 0000.0001) > /
(PID.TID 0000.0001) 
(PID.TID 0000.0001) MIXED_LAYER_INIT: finished reading data.atm_gray
(PID.TID 0000.0001) LSCALE_COND_INIT: opening data.atm_gray
(PID.TID 0000.0001)  OPEN_COPY_DATA_FILE: opening file data.atm_gray
(PID.TID 0000.0001) // =======================================================
(PID.TID 0000.0001) // Parameter file "data.atm_gray"
(PID.TID 0000.0001) // =======================================================
(PID.TID 0000.0001) >
(PID.TID 0000.0001) > &atmosphere_nml
(PID.TID 0000.0001) >    turb = .TRUE.,
(PID.TID 0000.0001) >    ldry_convection = .false.,
(PID.TID 0000.0001) >    lwet_convection = .TRUE.,
(PID.TID 0000.0001) >    do_virtual = .false.,
(PID.TID 0000.0001) >    two_stream = .true.,
(PID.TID 0000.0001) >    mixed_layer_bc = .false.,
(PID.TID 0000.0001) >    roughness_heat = 0.05,
(PID.TID 0000.0001) >    roughness_moist = 0.05,
(PID.TID 0000.0001) >    roughness_mom = 0.05,
(PID.TID 0000.0001) > /
(PID.TID 0000.0001) >
(PID.TID 0000.0001) > &radiation_nml
(PID.TID 0000.0001) >  select_incSW  = 1,
(PID.TID 0000.0001) >  solar_constant= 1365.,
(PID.TID 0000.0001) ># yearLength=
(PID.TID 0000.0001) ># yearPhase =
(PID.TID 0000.0001) ># obliquity =
(PID.TID 0000.0001) >  del_sol=1.,
(PID.TID 0000.0001) ># ir_tau_eq=
(PID.TID 0000.0001) ># ir_tau_pole=
(PID.TID 0000.0001) >  atm_abs= 0.22,
(PID.TID 0000.0001) ># value that Ruth is using as default:
(PID.TID 0000.0001) ># atm_abs= 0.2486,
(PID.TID 0000.0001) ># sw_diff=
(PID.TID 0000.0001) ># linear_tau=
(PID.TID 0000.0001) ># del_sw=
(PID.TID 0000.0001) >  albedo_value=0.38,
(PID.TID 0000.0001) ># window=
(PID.TID 0000.0001) ># wv_exponent=
(PID.TID 0000.0001) ># solar_exponent=
(PID.TID 0000.0001) >  wv_exponent=0.,
(PID.TID 0000.0001) > /
(PID.TID 0000.0001) >
(PID.TID 0000.0001) > &lscale_cond_nml
(PID.TID 0000.0001) ># hc =
(PID.TID 0000.0001) ># do_evap=
(PID.TID 0000.0001) > /
(PID.TID 0000.0001) >
(PID.TID 0000.0001) > &dargan_bettsmiller_nml
(PID.TID 0000.0001) >#-- default:
(PID.TID 0000.0001) >#   tau_bm = 7200.,
(PID.TID 0000.0001) >#   rhbm   = 0.8,
(PID.TID 0000.0001) >#   do_virtual   = .FALSE.,
(PID.TID 0000.0001) >#   do_shallower = .FALSE.,
(PID.TID 0000.0001) >#   do_changeqref= .FALSE.,
(PID.TID 0000.0001) >#   do_envsat    = .FALSE.,
(PID.TID 0000.0001) >#   do_taucape   = .FALSE.,
(PID.TID 0000.0001) >#     capetaubm  = 900.,
(PID.TID 0000.0001) >#     tau_min    = 2400.,
(PID.TID 0000.0001) >#   do_bm_shift  = .FALSE.,
(PID.TID 0000.0001) >#-- POG choice:
(PID.TID 0000.0001) >#  rhbm = 0.7,
(PID.TID 0000.0001) >   do_virtual= .TRUE.,
(PID.TID 0000.0001) >   do_shallower= .TRUE.,
(PID.TID 0000.0001) > /
(PID.TID 0000.0001) >
(PID.TID 0000.0001) > &surface_flux_nml
(PID.TID 0000.0001) > /
(PID.TID 0000.0001) >
(PID.TID 0000.0001) > &vert_turb_driver_nml
(PID.TID 0000.0001) >#  do_shallow_conv, do_mellor_yamada,
(PID.TID 0000.0001) >#  gust_scheme, constant_gust, use_tau,
(PID.TID 0000.0001) >#  do_molecular_diffusion
(PID.TID 0000.0001) >  do_mellor_yamada=.FALSE.,
(PID.TID 0000.0001) > /
(PID.TID 0000.0001) >
(PID.TID 0000.0001) > &diffusivity_nml
(PID.TID 0000.0001) >#  fixed_depth, depth_0, frac_inner,
(PID.TID 0000.0001) >#  rich_crit_pbl, entr_ratio, parcel_buoy,
(PID.TID 0000.0001) >#  znom, free_atm_diff, free_atm_skyhi_diff,
(PID.TID 0000.0001) >#  pbl_mcm, rich_crit_diff, mix_len, rich_prandtl,
(PID.TID 0000.0001) >#  background_m, background_t, ampns, ampns_max,
(PID.TID 0000.0001) >#  do_virtual_non_mcm
(PID.TID 0000.0001) > /
(PID.TID 0000.0001) >
(PID.TID 0000.0001) > &monin_obukhov_nml
(PID.TID 0000.0001) > /
(PID.TID 0000.0001) >
(PID.TID 0000.0001) > &my25_turb_nml
(PID.TID 0000.0001) > /
(PID.TID 0000.0001) >
(PID.TID 0000.0001) > &shallow_conv_nml
(PID.TID 0000.0001) > /
(PID.TID 0000.0001) >
(PID.TID 0000.0001) > &mixed_layer_nml
(PID.TID 0000.0001) ># evaporation, qflux_amp, depth, qflux_width
(PID.TID 0000.0001) >  depth=5000.,
(PID.TID 0000.0001) > /
(PID.TID 0000.0001) 
(PID.TID 0000.0001) LSCALE_COND_INIT: finished reading data.atm_gray
(PID.TID 0000.0001) DARGAN_BETTSMILLER_init: opening data.atm_gray
(PID.TID 0000.0001)  OPEN_COPY_DATA_FILE: opening file data.atm_gray
(PID.TID 0000.0001) // =======================================================
(PID.TID 0000.0001) // Parameter file "data.atm_gray"
(PID.TID 0000.0001) // =======================================================
(PID.TID 0000.0001) >
(PID.TID 0000.0001) > &atmosphere_nml
(PID.TID 0000.0001) >    turb = .TRUE.,
(PID.TID 0000.0001) >    ldry_convection = .false.,
(PID.TID 0000.0001) >    lwet_convection = .TRUE.,
(PID.TID 0000.0001) >    do_virtual = .false.,
(PID.TID 0000.0001) >    two_stream = .true.,
(PID.TID 0000.0001) >    mixed_layer_bc = .false.,
(PID.TID 0000.0001) >    roughness_heat = 0.05,
(PID.TID 0000.0001) >    roughness_moist = 0.05,
(PID.TID 0000.0001) >    roughness_mom = 0.05,
(PID.TID 0000.0001) > /
(PID.TID 0000.0001) >
(PID.TID 0000.0001) > &radiation_nml
(PID.TID 0000.0001) >  select_incSW  = 1,
(PID.TID 0000.0001) >  solar_constant= 1365.,
(PID.TID 0000.0001) ># yearLength=
(PID.TID 0000.0001) ># yearPhase =
(PID.TID 0000.0001) ># obliquity =
(PID.TID 0000.0001) >  del_sol=1.,
(PID.TID 0000.0001) ># ir_tau_eq=
(PID.TID 0000.0001) ># ir_tau_pole=
(PID.TID 0000.0001) >  atm_abs= 0.22,
(PID.TID 0000.0001) ># value that Ruth is using as default:
(PID.TID 0000.0001) ># atm_abs= 0.2486,
(PID.TID 0000.0001) ># sw_diff=
(PID.TID 0000.0001) ># linear_tau=
(PID.TID 0000.0001) ># del_sw=
(PID.TID 0000.0001) >  albedo_value=0.38,
(PID.TID 0000.0001) ># window=
(PID.TID 0000.0001) ># wv_exponent=
(PID.TID 0000.0001) ># solar_exponent=
(PID.TID 0000.0001) >  wv_exponent=0.,
(PID.TID 0000.0001) > /
(PID.TID 0000.0001) >
(PID.TID 0000.0001) > &lscale_cond_nml
(PID.TID 0000.0001) ># hc =
(PID.TID 0000.0001) ># do_evap=
(PID.TID 0000.0001) > /
(PID.TID 0000.0001) >
(PID.TID 0000.0001) > &dargan_bettsmiller_nml
(PID.TID 0000.0001) >#-- default:
(PID.TID 0000.0001) >#   tau_bm = 7200.,
(PID.TID 0000.0001) >#   rhbm   = 0.8,
(PID.TID 0000.0001) >#   do_virtual   = .FALSE.,
(PID.TID 0000.0001) >#   do_shallower = .FALSE.,
(PID.TID 0000.0001) >#   do_changeqref= .FALSE.,
(PID.TID 0000.0001) >#   do_envsat    = .FALSE.,
(PID.TID 0000.0001) >#   do_taucape   = .FALSE.,
(PID.TID 0000.0001) >#     capetaubm  = 900.,
(PID.TID 0000.0001) >#     tau_min    = 2400.,
(PID.TID 0000.0001) >#   do_bm_shift  = .FALSE.,
(PID.TID 0000.0001) >#-- POG choice:
(PID.TID 0000.0001) >#  rhbm = 0.7,
(PID.TID 0000.0001) >   do_virtual= .TRUE.,
(PID.TID 0000.0001) >   do_shallower= .TRUE.,
(PID.TID 0000.0001) > /
(PID.TID 0000.0001) >
(PID.TID 0000.0001) > &surface_flux_nml
(PID.TID 0000.0001) > /
(PID.TID 0000.0001) >
(PID.TID 0000.0001) > &vert_turb_driver_nml
(PID.TID 0000.0001) >#  do_shallow_conv, do_mellor_yamada,
(PID.TID 0000.0001) >#  gust_scheme, constant_gust, use_tau,
(PID.TID 0000.0001) >#  do_molecular_diffusion
(PID.TID 0000.0001) >  do_mellor_yamada=.FALSE.,
(PID.TID 0000.0001) > /
(PID.TID 0000.0001) >
(PID.TID 0000.0001) > &diffusivity_nml
(PID.TID 0000.0001) >#  fixed_depth, depth_0, frac_inner,
(PID.TID 0000.0001) >#  rich_crit_pbl, entr_ratio, parcel_buoy,
(PID.TID 0000.0001) >#  znom, free_atm_diff, free_atm_skyhi_diff,
(PID.TID 0000.0001) >#  pbl_mcm, rich_crit_diff, mix_len, rich_prandtl,
(PID.TID 0000.0001) >#  background_m, background_t, ampns, ampns_max,
(PID.TID 0000.0001) >#  do_virtual_non_mcm
(PID.TID 0000.0001) > /
(PID.TID 0000.0001) >
(PID.TID 0000.0001) > &monin_obukhov_nml
(PID.TID 0000.0001) > /
(PID.TID 0000.0001) >
(PID.TID 0000.0001) > &my25_turb_nml
(PID.TID 0000.0001) > /
(PID.TID 0000.0001) >
(PID.TID 0000.0001) > &shallow_conv_nml
(PID.TID 0000.0001) > /
(PID.TID 0000.0001) >
(PID.TID 0000.0001) > &mixed_layer_nml
(PID.TID 0000.0001) ># evaporation, qflux_amp, depth, qflux_width
(PID.TID 0000.0001) >  depth=5000.,
(PID.TID 0000.0001) > /
(PID.TID 0000.0001) 
(PID.TID 0000.0001) DARGAB_BETTSMILLER_INIT: finished reading data.atm_gray
(PID.TID 0000.0001) RADIATION_INIT: opening data.atm_gray
(PID.TID 0000.0001)  OPEN_COPY_DATA_FILE: opening file data.atm_gray
(PID.TID 0000.0001) // =======================================================
(PID.TID 0000.0001) // Parameter file "data.atm_gray"
(PID.TID 0000.0001) // =======================================================
(PID.TID 0000.0001) >
(PID.TID 0000.0001) > &atmosphere_nml
(PID.TID 0000.0001) >    turb = .TRUE.,
(PID.TID 0000.0001) >    ldry_convection = .false.,
(PID.TID 0000.0001) >    lwet_convection = .TRUE.,
(PID.TID 0000.0001) >    do_virtual = .false.,
(PID.TID 0000.0001) >    two_stream = .true.,
(PID.TID 0000.0001) >    mixed_layer_bc = .false.,
(PID.TID 0000.0001) >    roughness_heat = 0.05,
(PID.TID 0000.0001) >    roughness_moist = 0.05,
(PID.TID 0000.0001) >    roughness_mom = 0.05,
(PID.TID 0000.0001) > /
(PID.TID 0000.0001) >
(PID.TID 0000.0001) > &radiation_nml
(PID.TID 0000.0001) >  select_incSW  = 1,
(PID.TID 0000.0001) >  solar_constant= 1365.,
(PID.TID 0000.0001) ># yearLength=
(PID.TID 0000.0001) ># yearPhase =
(PID.TID 0000.0001) ># obliquity =
(PID.TID 0000.0001) >  del_sol=1.,
(PID.TID 0000.0001) ># ir_tau_eq=
(PID.TID 0000.0001) ># ir_tau_pole=
(PID.TID 0000.0001) >  atm_abs= 0.22,
(PID.TID 0000.0001) ># value that Ruth is using as default:
(PID.TID 0000.0001) ># atm_abs= 0.2486,
(PID.TID 0000.0001) ># sw_diff=
(PID.TID 0000.0001) ># linear_tau=
(PID.TID 0000.0001) ># del_sw=
(PID.TID 0000.0001) >  albedo_value=0.38,
(PID.TID 0000.0001) ># window=
(PID.TID 0000.0001) ># wv_exponent=
(PID.TID 0000.0001) ># solar_exponent=
(PID.TID 0000.0001) >  wv_exponent=0.,
(PID.TID 0000.0001) > /
(PID.TID 0000.0001) >
(PID.TID 0000.0001) > &lscale_cond_nml
(PID.TID 0000.0001) ># hc =
(PID.TID 0000.0001) ># do_evap=
(PID.TID 0000.0001) > /
(PID.TID 0000.0001) >
(PID.TID 0000.0001) > &dargan_bettsmiller_nml
(PID.TID 0000.0001) >#-- default:
(PID.TID 0000.0001) >#   tau_bm = 7200.,
(PID.TID 0000.0001) >#   rhbm   = 0.8,
(PID.TID 0000.0001) >#   do_virtual   = .FALSE.,
(PID.TID 0000.0001) >#   do_shallower = .FALSE.,
(PID.TID 0000.0001) >#   do_changeqref= .FALSE.,
(PID.TID 0000.0001) >#   do_envsat    = .FALSE.,
(PID.TID 0000.0001) >#   do_taucape   = .FALSE.,
(PID.TID 0000.0001) >#     capetaubm  = 900.,
(PID.TID 0000.0001) >#     tau_min    = 2400.,
(PID.TID 0000.0001) >#   do_bm_shift  = .FALSE.,
(PID.TID 0000.0001) >#-- POG choice:
(PID.TID 0000.0001) >#  rhbm = 0.7,
(PID.TID 0000.0001) >   do_virtual= .TRUE.,
(PID.TID 0000.0001) >   do_shallower= .TRUE.,
(PID.TID 0000.0001) > /
(PID.TID 0000.0001) >
(PID.TID 0000.0001) > &surface_flux_nml
(PID.TID 0000.0001) > /
(PID.TID 0000.0001) >
(PID.TID 0000.0001) > &vert_turb_driver_nml
(PID.TID 0000.0001) >#  do_shallow_conv, do_mellor_yamada,
(PID.TID 0000.0001) >#  gust_scheme, constant_gust, use_tau,
(PID.TID 0000.0001) >#  do_molecular_diffusion
(PID.TID 0000.0001) >  do_mellor_yamada=.FALSE.,
(PID.TID 0000.0001) > /
(PID.TID 0000.0001) >
(PID.TID 0000.0001) > &diffusivity_nml
(PID.TID 0000.0001) >#  fixed_depth, depth_0, frac_inner,
(PID.TID 0000.0001) >#  rich_crit_pbl, entr_ratio, parcel_buoy,
(PID.TID 0000.0001) >#  znom, free_atm_diff, free_atm_skyhi_diff,
(PID.TID 0000.0001) >#  pbl_mcm, rich_crit_diff, mix_len, rich_prandtl,
(PID.TID 0000.0001) >#  background_m, background_t, ampns, ampns_max,
(PID.TID 0000.0001) >#  do_virtual_non_mcm
(PID.TID 0000.0001) > /
(PID.TID 0000.0001) >
(PID.TID 0000.0001) > &monin_obukhov_nml
(PID.TID 0000.0001) > /
(PID.TID 0000.0001) >
(PID.TID 0000.0001) > &my25_turb_nml
(PID.TID 0000.0001) > /
(PID.TID 0000.0001) >
(PID.TID 0000.0001) > &shallow_conv_nml
(PID.TID 0000.0001) > /
(PID.TID 0000.0001) >
(PID.TID 0000.0001) > &mixed_layer_nml
(PID.TID 0000.0001) ># evaporation, qflux_amp, depth, qflux_width
(PID.TID 0000.0001) >  depth=5000.,
(PID.TID 0000.0001) > /
(PID.TID 0000.0001) 
(PID.TID 0000.0001) RADIATION_INIT: finished reading data.atm_gray
(PID.TID 0000.0001) VERT_TURB_DRIVER_INIT: opening data.atm_gray
(PID.TID 0000.0001)  OPEN_COPY_DATA_FILE: opening file data.atm_gray
(PID.TID 0000.0001) // =======================================================
(PID.TID 0000.0001) // Parameter file "data.atm_gray"
(PID.TID 0000.0001) // =======================================================
(PID.TID 0000.0001) >
(PID.TID 0000.0001) > &atmosphere_nml
(PID.TID 0000.0001) >    turb = .TRUE.,
(PID.TID 0000.0001) >    ldry_convection = .false.,
(PID.TID 0000.0001) >    lwet_convection = .TRUE.,
(PID.TID 0000.0001) >    do_virtual = .false.,
(PID.TID 0000.0001) >    two_stream = .true.,
(PID.TID 0000.0001) >    mixed_layer_bc = .false.,
(PID.TID 0000.0001) >    roughness_heat = 0.05,
(PID.TID 0000.0001) >    roughness_moist = 0.05,
(PID.TID 0000.0001) >    roughness_mom = 0.05,
(PID.TID 0000.0001) > /
(PID.TID 0000.0001) >
(PID.TID 0000.0001) > &radiation_nml
(PID.TID 0000.0001) >  select_incSW  = 1,
(PID.TID 0000.0001) >  solar_constant= 1365.,
(PID.TID 0000.0001) ># yearLength=
(PID.TID 0000.0001) ># yearPhase =
(PID.TID 0000.0001) ># obliquity =
(PID.TID 0000.0001) >  del_sol=1.,
(PID.TID 0000.0001) ># ir_tau_eq=
(PID.TID 0000.0001) ># ir_tau_pole=
(PID.TID 0000.0001) >  atm_abs= 0.22,
(PID.TID 0000.0001) ># value that Ruth is using as default:
(PID.TID 0000.0001) ># atm_abs= 0.2486,
(PID.TID 0000.0001) ># sw_diff=
(PID.TID 0000.0001) ># linear_tau=
(PID.TID 0000.0001) ># del_sw=
(PID.TID 0000.0001) >  albedo_value=0.38,
(PID.TID 0000.0001) ># window=
(PID.TID 0000.0001) ># wv_exponent=
(PID.TID 0000.0001) ># solar_exponent=
(PID.TID 0000.0001) >  wv_exponent=0.,
(PID.TID 0000.0001) > /
(PID.TID 0000.0001) >
(PID.TID 0000.0001) > &lscale_cond_nml
(PID.TID 0000.0001) ># hc =
(PID.TID 0000.0001) ># do_evap=
(PID.TID 0000.0001) > /
(PID.TID 0000.0001) >
(PID.TID 0000.0001) > &dargan_bettsmiller_nml
(PID.TID 0000.0001) >#-- default:
(PID.TID 0000.0001) >#   tau_bm = 7200.,
(PID.TID 0000.0001) >#   rhbm   = 0.8,
(PID.TID 0000.0001) >#   do_virtual   = .FALSE.,
(PID.TID 0000.0001) >#   do_shallower = .FALSE.,
(PID.TID 0000.0001) >#   do_changeqref= .FALSE.,
(PID.TID 0000.0001) >#   do_envsat    = .FALSE.,
(PID.TID 0000.0001) >#   do_taucape   = .FALSE.,
(PID.TID 0000.0001) >#     capetaubm  = 900.,
(PID.TID 0000.0001) >#     tau_min    = 2400.,
(PID.TID 0000.0001) >#   do_bm_shift  = .FALSE.,
(PID.TID 0000.0001) >#-- POG choice:
(PID.TID 0000.0001) >#  rhbm = 0.7,
(PID.TID 0000.0001) >   do_virtual= .TRUE.,
(PID.TID 0000.0001) >   do_shallower= .TRUE.,
(PID.TID 0000.0001) > /
(PID.TID 0000.0001) >
(PID.TID 0000.0001) > &surface_flux_nml
(PID.TID 0000.0001) > /
(PID.TID 0000.0001) >
(PID.TID 0000.0001) > &vert_turb_driver_nml
(PID.TID 0000.0001) >#  do_shallow_conv, do_mellor_yamada,
(PID.TID 0000.0001) >#  gust_scheme, constant_gust, use_tau,
(PID.TID 0000.0001) >#  do_molecular_diffusion
(PID.TID 0000.0001) >  do_mellor_yamada=.FALSE.,
(PID.TID 0000.0001) > /
(PID.TID 0000.0001) >
(PID.TID 0000.0001) > &diffusivity_nml
(PID.TID 0000.0001) >#  fixed_depth, depth_0, frac_inner,
(PID.TID 0000.0001) >#  rich_crit_pbl, entr_ratio, parcel_buoy,
(PID.TID 0000.0001) >#  znom, free_atm_diff, free_atm_skyhi_diff,
(PID.TID 0000.0001) >#  pbl_mcm, rich_crit_diff, mix_len, rich_prandtl,
(PID.TID 0000.0001) >#  background_m, background_t, ampns, ampns_max,
(PID.TID 0000.0001) >#  do_virtual_non_mcm
(PID.TID 0000.0001) > /
(PID.TID 0000.0001) >
(PID.TID 0000.0001) > &monin_obukhov_nml
(PID.TID 0000.0001) > /
(PID.TID 0000.0001) >
(PID.TID 0000.0001) > &my25_turb_nml
(PID.TID 0000.0001) > /
(PID.TID 0000.0001) >
(PID.TID 0000.0001) > &shallow_conv_nml
(PID.TID 0000.0001) > /
(PID.TID 0000.0001) >
(PID.TID 0000.0001) > &mixed_layer_nml
(PID.TID 0000.0001) ># evaporation, qflux_amp, depth, qflux_width
(PID.TID 0000.0001) >  depth=5000.,
(PID.TID 0000.0001) > /
(PID.TID 0000.0001) 
(PID.TID 0000.0001) VERT_TURB_DRIVER_INIT: finished reading data.atm_gray
(PID.TID 0000.0001) ------------------------------------------------------------
(PID.TID 0000.0001) DIAGNOSTICS_SET_LEVELS: done
(PID.TID 0000.0001)  Total Nb of available Diagnostics: ndiagt=   220
(PID.TID 0000.0001)  write list of available Diagnostics to file: available_diagnostics.log
(PID.TID 0000.0001) SETDIAG: Allocate  1 x 12 Levels for Diagnostic #    23 ETAN
(PID.TID 0000.0001) SETDIAG: Allocate  1 x 12 Levels for Diagnostic #    24 ETANSQ
(PID.TID 0000.0001) SETDIAG: Allocate  1 x 12 Levels for Diagnostic #    25 DETADT2
(PID.TID 0000.0001) SETDIAG: Allocate  1 x 12 Levels for Diagnostic #   210 AtPhCAPE
(PID.TID 0000.0001) SETDIAG: Allocate  1 x 12 Levels for Diagnostic #   197 AtPhCnvP
(PID.TID 0000.0001) SETDIAG: Allocate  1 x 12 Levels for Diagnostic #   198 AtPhLscP
(PID.TID 0000.0001) SETDIAG: Allocate  1 x 12 Levels for Diagnostic #   206 AtPhSens
(PID.TID 0000.0001) SETDIAG: Allocate  1 x 12 Levels for Diagnostic #   207 AtPhEvap
(PID.TID 0000.0001) SETDIAG: Allocate  1 x 12 Levels for Diagnostic #   208 AtPhTauX
(PID.TID 0000.0001) SETDIAG: Allocate  1 x 12 Levels for Diagnostic #   209 AtPhTauY
(PID.TID 0000.0001) SETDIAG: Allocate  1 x 12 Levels for Diagnostic #   190 AtPh_SST
(PID.TID 0000.0001) SETDIAG: Allocate  1 x 12 Levels for Diagnostic #   199 AtPhInSR
(PID.TID 0000.0001) SETDIAG: Allocate  1 x 12 Levels for Diagnostic #   201 AtPhOLR
(PID.TID 0000.0001) SETDIAG: Allocate  1 x 12 Levels for Diagnostic #   203 AtPhNSSR
(PID.TID 0000.0001) SETDIAG: Allocate  1 x 12 Levels for Diagnostic #   204 AtPhDSLR
(PID.TID 0000.0001) SETDIAG: Allocate  1 x 12 Levels for Diagnostic #   205 AtPhUSLR
(PID.TID 0000.0001) SETDIAG: Allocate 26 x  4 Levels for Diagnostic #    29 UVEL
(PID.TID 0000.0001) SETDIAG: Allocate 26 x  4 Levels for Diagnostic #    30 VVEL
(PID.TID 0000.0001) SETDIAG: Allocate 26 x  4 Levels for Diagnostic #    31 WVEL
(PID.TID 0000.0001) SETDIAG: Allocate 26 x  4 Levels for Diagnostic #    26 THETA
(PID.TID 0000.0001) SETDIAG: Allocate 26 x  4 Levels for Diagnostic #    27 SALT
(PID.TID 0000.0001) SETDIAG: Allocate 26 x  4 Levels for Diagnostic #    34 UVELSQ
(PID.TID 0000.0001) SETDIAG: Allocate 26 x  4 Levels for Diagnostic #    35 VVELSQ
(PID.TID 0000.0001) SETDIAG: Allocate 26 x  4 Levels for Diagnostic #    36 WVELSQ
(PID.TID 0000.0001) SETDIAG: Allocate 26 x  4 Levels for Diagnostic #    32 THETASQ
(PID.TID 0000.0001) SETDIAG: Allocate 26 x  4 Levels for Diagnostic #    33 SALTSQ
(PID.TID 0000.0001) SETDIAG: Allocate 26 x  4 Levels for Diagnostic #    43 UVELMASS
(PID.TID 0000.0001) SETDIAG: Allocate 26 x  4 Levels for Diagnostic #    44 VVELMASS
(PID.TID 0000.0001) SETDIAG: Allocate 26 x  4 Levels for Diagnostic #    39 UV_VEL_C
(PID.TID 0000.0001) SETDIAG: Allocate 26 x  4 Levels for Diagnostic #    28 RELHUM
(PID.TID 0000.0001) SETDIAG: Allocate 26 x  4 Levels for Diagnostic #   108 ADVx_TH
(PID.TID 0000.0001) SETDIAG: Allocate 26 x  4 Levels for Diagnostic #   109 ADVy_TH
(PID.TID 0000.0001) SETDIAG: Allocate 26 x  4 Levels for Diagnostic #   107 ADVr_TH
(PID.TID 0000.0001) SETDIAG: Allocate 26 x  4 Levels for Diagnostic #   115 ADVx_SLT
(PID.TID 0000.0001) SETDIAG: Allocate 26 x  4 Levels for Diagnostic #   116 ADVy_SLT
(PID.TID 0000.0001) SETDIAG: Allocate 26 x  4 Levels for Diagnostic #   114 ADVr_SLT
(PID.TID 0000.0001)   space allocated for all diagnostics:    2272 levels
(PID.TID 0000.0001)   set mate pointer for diag #    29  UVEL     , Parms: UUR     MR , mate:    30
(PID.TID 0000.0001)   set mate pointer for diag #    30  VVEL     , Parms: VVR     MR , mate:    29
(PID.TID 0000.0001)   set mate pointer for diag #    34  UVELSQ   , Parms: UURP    MR , mate:    35
(PID.TID 0000.0001)   set mate pointer for diag #    35  VVELSQ   , Parms: VVRP    MR , mate:    34
(PID.TID 0000.0001)   set mate pointer for diag #    43  UVELMASS , Parms: UUr     MR , mate:    44
(PID.TID 0000.0001)   set mate pointer for diag #    44  VVELMASS , Parms: VVr     MR , mate:    43
(PID.TID 0000.0001)   set mate pointer for diag #    39  UV_VEL_C , Parms: UMR     MR , mate:    39
(PID.TID 0000.0001)   set mate pointer for diag #   108  ADVx_TH  , Parms: UU      MR , mate:   109
(PID.TID 0000.0001)   set mate pointer for diag #   109  ADVy_TH  , Parms: VV      MR , mate:   108
(PID.TID 0000.0001)   set mate pointer for diag #   115  ADVx_SLT , Parms: UU      MR , mate:   116
(PID.TID 0000.0001)   set mate pointer for diag #   116  ADVy_SLT , Parms: VV      MR , mate:   115
(PID.TID 0000.0001) DIAGNOSTICS_SET_POINTERS: Set levels for Outp.Stream: surfDiag
(PID.TID 0000.0001)  Levels:       1.
(PID.TID 0000.0001) DIAGNOSTICS_SET_POINTERS: Set levels for Outp.Stream: dynDiag
(PID.TID 0000.0001)  Levels:       1.   2.   3.   4.   5.   6.   7.   8.   9.  10.  11.  12.  13.  14.  15.  16.  17.  18.  19.  20.
(PID.TID 0000.0001)  Levels:      21.  22.  23.  24.  25.  26.
(PID.TID 0000.0001) DIAGNOSTICS_SET_POINTERS: done
(PID.TID 0000.0001) ------------------------------------------------------------
(PID.TID 0000.0001) DIAGSTATS_SET_REGIONS: define no region
(PID.TID 0000.0001) ------------------------------------------------------------
(PID.TID 0000.0001) SETDIAG: Allocate  1 Levels for Stats-Diag #    23 ETAN
(PID.TID 0000.0001) SETDIAG: Allocate 26 Levels for Stats-Diag #    26 THETA
(PID.TID 0000.0001) SETDIAG: Allocate 26 Levels for Stats-Diag #    27 SALT
(PID.TID 0000.0001) SETDIAG: Allocate 26 Levels for Stats-Diag #    28 RELHUM
(PID.TID 0000.0001) SETDIAG: Allocate 26 Levels for Stats-Diag #    37 UE_VEL_C
(PID.TID 0000.0001) SETDIAG: Allocate 26 Levels for Stats-Diag #    38 VN_VEL_C
(PID.TID 0000.0001) SETDIAG: Allocate 26 Levels for Stats-Diag #    31 WVEL
(PID.TID 0000.0001) SETDIAG: Allocate 26 Levels for Stats-Diag #   191 AtPhdTdt
(PID.TID 0000.0001) SETDIAG: Allocate 26 Levels for Stats-Diag #   192 AtPhdQdt
(PID.TID 0000.0001) SETDIAG: Allocate 26 Levels for Stats-Diag #   193 AtPhdUdt
(PID.TID 0000.0001) SETDIAG: Allocate 26 Levels for Stats-Diag #   194 AtPhdVdt
(PID.TID 0000.0001) SETDIAG: Allocate 26 Levels for Stats-Diag #   195 AtPhDifT
(PID.TID 0000.0001) SETDIAG: Allocate 26 Levels for Stats-Diag #   196 AtPhDifM
(PID.TID 0000.0001) SETDIAG: Allocate 26 Levels for Stats-Diag #   220 AtPhDisH
(PID.TID 0000.0001) SETDIAG: Allocate 26 Levels for Stats-Diag #   218 AtPhdtTg
(PID.TID 0000.0001) SETDIAG: Allocate 26 Levels for Stats-Diag #   219 AtPhdtQg
(PID.TID 0000.0001) SETDIAG: Allocate 26 Levels for Stats-Diag #   189 SHAP_dKE
(PID.TID 0000.0001) SETDIAG: Allocate 26 Levels for Stats-Diag #    98 MoistCor
(PID.TID 0000.0001) SETDIAG: Allocate  1 Levels for Stats-Diag #   206 AtPhSens
(PID.TID 0000.0001) SETDIAG: Allocate  1 Levels for Stats-Diag #   207 AtPhEvap
(PID.TID 0000.0001) SETDIAG: Allocate  1 Levels for Stats-Diag #   208 AtPhTauX
(PID.TID 0000.0001) SETDIAG: Allocate  1 Levels for Stats-Diag #   209 AtPhTauY
(PID.TID 0000.0001) SETDIAG: Allocate  1 Levels for Stats-Diag #   210 AtPhCAPE
(PID.TID 0000.0001) SETDIAG: Allocate  1 Levels for Stats-Diag #   197 AtPhCnvP
(PID.TID 0000.0001) SETDIAG: Allocate  1 Levels for Stats-Diag #   198 AtPhLscP
(PID.TID 0000.0001) SETDIAG: Allocate  1 Levels for Stats-Diag #   190 AtPh_SST
(PID.TID 0000.0001) SETDIAG: Allocate  1 Levels for Stats-Diag #   199 AtPhInSR
(PID.TID 0000.0001) SETDIAG: Allocate  1 Levels for Stats-Diag #   201 AtPhOLR
(PID.TID 0000.0001) SETDIAG: Allocate  1 Levels for Stats-Diag #   203 AtPhNSSR
(PID.TID 0000.0001) SETDIAG: Allocate  1 Levels for Stats-Diag #   204 AtPhDSLR
(PID.TID 0000.0001) SETDIAG: Allocate  1 Levels for Stats-Diag #   205 AtPhUSLR
(PID.TID 0000.0001)   space allocated for all stats-diags:     456 levels
(PID.TID 0000.0001) DIAGSTATS_SET_POINTERS: done
(PID.TID 0000.0001) ------------------------------------------------------------
(PID.TID 0000.0001) DIAGSTATS_INI_IO: open file: dynStDiag.0000000000.txt , unit=     9
(PID.TID 0000.0001) DIAGSTATS_INI_IO: open file: diffStDiag.0000000000.txt , unit=    10
(PID.TID 0000.0001) DIAGSTATS_INI_IO: open file: flxStDiag.0000000000.txt , unit=    16
(PID.TID 0000.0001) INI_GLOBAL_DOMAIN: Found  24 CS-corner Pts in the domain
(PID.TID 0000.0001) %MON fCori_max                    =   1.4574827780704E-04
(PID.TID 0000.0001) %MON fCori_min                    =  -1.4574827780704E-04
(PID.TID 0000.0001) %MON fCori_mean                   =   0.0000000000000E+00
(PID.TID 0000.0001) %MON fCori_sd                     =   8.4202189509968E-05
(PID.TID 0000.0001) %MON fCoriG_max                   =   1.4584247033981E-04
(PID.TID 0000.0001) %MON fCoriG_min                   =  -1.4584247033981E-04
(PID.TID 0000.0001) %MON fCoriG_mean                  =   2.2587545260115E-21
(PID.TID 0000.0001) %MON fCoriG_sd                    =   8.4202189509968E-05
(PID.TID 0000.0001) %MON fCoriCos_max                 =   1.4580166994612E-04
(PID.TID 0000.0001) %MON fCoriCos_min                 =   5.2407700865903E-06
(PID.TID 0000.0001) %MON fCoriCos_mean                =   1.1514045869113E-04
(PID.TID 0000.0001) %MON fCoriCos_sd                  =   3.0375849106513E-05
(PID.TID 0000.0001) INI_CG2D: CG2D normalisation factor =  9.9119603843467461E-06
(PID.TID 0000.0001) INI_CG2D: cg2dTolerance = 1.403820515321401E-10 (Area=5.0986421043E+14)
(PID.TID 0000.0001) 
(PID.TID 0000.0001) // =======================================================
(PID.TID 0000.0001) // Model configuration
(PID.TID 0000.0001) // =======================================================
(PID.TID 0000.0001) //
(PID.TID 0000.0001) // "Physical" paramters ( PARM01 in namelist )
(PID.TID 0000.0001) //
(PID.TID 0000.0001) buoyancyRelation = /* Type of relation to get Buoyancy */
(PID.TID 0000.0001)               'ATMOSPHERIC'
(PID.TID 0000.0001)     ;
(PID.TID 0000.0001) fluidIsAir   =  /* fluid major constituent is Air */
(PID.TID 0000.0001)                   T
(PID.TID 0000.0001)     ;
(PID.TID 0000.0001) fluidIsWater =  /* fluid major constituent is Water */
(PID.TID 0000.0001)                   F
(PID.TID 0000.0001)     ;
(PID.TID 0000.0001) usingPCoords =  /* use p (or p*) vertical coordinate */
(PID.TID 0000.0001)                   T
(PID.TID 0000.0001)     ;
(PID.TID 0000.0001) usingZCoords =  /* use z (or z*) vertical coordinate */
(PID.TID 0000.0001)                   F
(PID.TID 0000.0001)     ;
(PID.TID 0000.0001) tRef =   /* Reference temperature profile ( oC or K ) */
(PID.TID 0000.0001)                 2.951000000000000E+02,      /* K =  1 */
(PID.TID 0000.0001)                 2.952000000000000E+02,      /* K =  2 */
(PID.TID 0000.0001)                 2.954000000000000E+02,      /* K =  3 */
(PID.TID 0000.0001)                 2.956000000000000E+02,      /* K =  4 */
(PID.TID 0000.0001)                 2.960000000000000E+02,      /* K =  5 */
(PID.TID 0000.0001)                 2.966000000000000E+02,      /* K =  6 */
(PID.TID 0000.0001)                 2.973000000000000E+02,      /* K =  7 */
(PID.TID 0000.0001)                 2.982000000000000E+02,      /* K =  8 */
(PID.TID 0000.0001)                 2.993000000000000E+02,      /* K =  9 */
(PID.TID 0000.0001)                 3.006000000000000E+02,      /* K = 10 */
(PID.TID 0000.0001)                 3.024000000000000E+02,      /* K = 11 */
(PID.TID 0000.0001)                 3.059000000000000E+02,      /* K = 12 */
(PID.TID 0000.0001)                 3.118000000000000E+02,      /* K = 13 */
(PID.TID 0000.0001)                 3.218000000000000E+02,      /* K = 14 */
(PID.TID 0000.0001)                 3.383000000000000E+02,      /* K = 15 */
(PID.TID 0000.0001)                 3.595000000000000E+02,      /* K = 16 */
(PID.TID 0000.0001)                 3.828000000000000E+02,      /* K = 17 */
(PID.TID 0000.0001)                 4.086000000000000E+02,      /* K = 18 */
(PID.TID 0000.0001)                 4.375000000000000E+02,      /* K = 19 */
(PID.TID 0000.0001)                 4.706000000000000E+02,      /* K = 20 */
(PID.TID 0000.0001)                 5.092000000000000E+02,      /* K = 21 */
(PID.TID 0000.0001)                 5.558000000000000E+02,      /* K = 22 */
(PID.TID 0000.0001)                 6.149000000000000E+02,      /* K = 23 */
(PID.TID 0000.0001)                 6.963000000000000E+02,      /* K = 24 */
(PID.TID 0000.0001)                 8.272000000000000E+02,      /* K = 25 */
(PID.TID 0000.0001)                 1.153600000000000E+03       /* K = 26 */
(PID.TID 0000.0001)     ;
(PID.TID 0000.0001) sRef =   /* Reference salinity profile ( psu ) */
(PID.TID 0000.0001)    26 @  0.000000000000000E+00              /* K =  1: 26 */
(PID.TID 0000.0001)     ;
(PID.TID 0000.0001) useStrainTensionVisc= /* Use StrainTension Form of Viscous Operator */
(PID.TID 0000.0001)                   F
(PID.TID 0000.0001)     ;
(PID.TID 0000.0001) useVariableVisc = /* Use variable horizontal viscosity */
(PID.TID 0000.0001)                   F
(PID.TID 0000.0001)     ;
(PID.TID 0000.0001) useHarmonicVisc = /* Use harmonic horizontal viscosity */
(PID.TID 0000.0001)                   F
(PID.TID 0000.0001)     ;
(PID.TID 0000.0001) useBiharmonicVisc= /* Use biharmonic horiz.  viscosity */
(PID.TID 0000.0001)                   F
(PID.TID 0000.0001)     ;
(PID.TID 0000.0001) useSmag3D = /* Use isotropic 3-D Smagorinsky viscosity */
(PID.TID 0000.0001)                   F
(PID.TID 0000.0001)     ;
(PID.TID 0000.0001) viscAh  =   /* Lateral harmonic viscosity ( m^2/s ) */
(PID.TID 0000.0001)                 0.000000000000000E+00
(PID.TID 0000.0001)     ;
(PID.TID 0000.0001) viscA4  =   /* Lateral biharmonic viscosity ( m^4/s ) */
(PID.TID 0000.0001)                 0.000000000000000E+00
(PID.TID 0000.0001)     ;
(PID.TID 0000.0001) no_slip_sides =  /* Viscous BCs: No-slip sides */
(PID.TID 0000.0001)                   F
(PID.TID 0000.0001)     ;
(PID.TID 0000.0001) sideDragFactor = /* side-drag scaling factor (non-dim) */
(PID.TID 0000.0001)                 2.000000000000000E+00
(PID.TID 0000.0001)     ;
(PID.TID 0000.0001) viscArNr = /* vertical profile of vertical viscosity (Pa^2/s )*/
(PID.TID 0000.0001)    26 @  0.000000000000000E+00              /* K =  1: 26 */
(PID.TID 0000.0001)     ;
(PID.TID 0000.0001) no_slip_bottom =  /* Viscous BCs: No-slip bottom */
(PID.TID 0000.0001)                   F
(PID.TID 0000.0001)     ;
(PID.TID 0000.0001) bottomDragLinear = /* linear bottom-drag coefficient ( m/s ) */
(PID.TID 0000.0001)                 0.000000000000000E+00
(PID.TID 0000.0001)     ;
(PID.TID 0000.0001) bottomDragQuadratic = /* quadratic bottom-drag coefficient (-) */
(PID.TID 0000.0001)                 0.000000000000000E+00
(PID.TID 0000.0001)     ;
(PID.TID 0000.0001) diffKhT =   /* Laplacian diffusion of heat laterally ( m^2/s ) */
(PID.TID 0000.0001)                 0.000000000000000E+00
(PID.TID 0000.0001)     ;
(PID.TID 0000.0001) diffK4T =   /* Biharmonic diffusion of heat laterally ( m^4/s ) */
(PID.TID 0000.0001)                 0.000000000000000E+00
(PID.TID 0000.0001)     ;
(PID.TID 0000.0001) diffKhS =   /* Laplacian diffusion of salt laterally ( m^2/s ) */
(PID.TID 0000.0001)                 0.000000000000000E+00
(PID.TID 0000.0001)     ;
(PID.TID 0000.0001) diffK4S =   /* Biharmonic diffusion of salt laterally ( m^4/s ) */
(PID.TID 0000.0001)                 0.000000000000000E+00
(PID.TID 0000.0001)     ;
(PID.TID 0000.0001) diffKrNrT = /* vertical profile of vertical diffusion of Temp (Pa^2/s )*/
(PID.TID 0000.0001)    26 @  0.000000000000000E+00              /* K =  1: 26 */
(PID.TID 0000.0001)     ;
(PID.TID 0000.0001) diffKrNrS = /* vertical profile of vertical diffusion of Salt (Pa^2/s )*/
(PID.TID 0000.0001)    26 @  0.000000000000000E+00              /* K =  1: 26 */
(PID.TID 0000.0001)     ;
(PID.TID 0000.0001) diffKrBL79surf = /* Surface diffusion for Bryan and Lewis 79 ( m^2/s ) */
(PID.TID 0000.0001)                 0.000000000000000E+00
(PID.TID 0000.0001)     ;
(PID.TID 0000.0001) diffKrBL79deep = /* Deep diffusion for Bryan and Lewis 1979 ( m^2/s ) */
(PID.TID 0000.0001)                 0.000000000000000E+00
(PID.TID 0000.0001)     ;
(PID.TID 0000.0001) diffKrBL79scl = /* Depth scale for Bryan and Lewis 1979 ( m ) */
(PID.TID 0000.0001)                 2.000000000000000E+02
(PID.TID 0000.0001)     ;
(PID.TID 0000.0001) diffKrBL79Ho = /* Turning depth for Bryan and Lewis 1979 ( m ) */
(PID.TID 0000.0001)                -2.000000000000000E+03
(PID.TID 0000.0001)     ;
(PID.TID 0000.0001) ivdc_kappa = /* Implicit Vertical Diffusivity for Convection (Pa^2/s) */
(PID.TID 0000.0001)                 0.000000000000000E+00
(PID.TID 0000.0001)     ;
(PID.TID 0000.0001) hMixCriteria=  /* Criteria for mixed-layer diagnostic */
(PID.TID 0000.0001)                -8.000000000000000E-01
(PID.TID 0000.0001)     ;
(PID.TID 0000.0001) dRhoSmall =  /* Parameter for mixed-layer diagnostic */
(PID.TID 0000.0001)                 1.000000000000000E-06
(PID.TID 0000.0001)     ;
(PID.TID 0000.0001) hMixSmooth=  /* Smoothing parameter for mixed-layer diagnostic */
(PID.TID 0000.0001)                 0.000000000000000E+00
(PID.TID 0000.0001)     ;
(PID.TID 0000.0001) eosType =  /* Type of Equation of State */
(PID.TID 0000.0001)               'IDEALG'
(PID.TID 0000.0001)     ;
(PID.TID 0000.0001) celsius2K = /* 0 degree Celsius converted to Kelvin ( K ) */
(PID.TID 0000.0001)                 2.731500000000000E+02
(PID.TID 0000.0001)     ;
(PID.TID 0000.0001) atm_Rd =    /* gas constant for dry air ( J/kg/K ) */
(PID.TID 0000.0001)                 2.870400000000000E+02
(PID.TID 0000.0001)     ;
(PID.TID 0000.0001) atm_Cp =    /* specific heat (Cp) of dry air ( J/kg/K ) */
(PID.TID 0000.0001)                 1.004640000000000E+03
(PID.TID 0000.0001)     ;
(PID.TID 0000.0001) atm_kappa = /* kappa (=Rd/Cp ) of dry air */
(PID.TID 0000.0001)                 2.857142857142857E-01
(PID.TID 0000.0001)     ;
(PID.TID 0000.0001) atm_Rq =  /* water vap. specific vol. anomaly relative to dry air */
(PID.TID 0000.0001)                 6.078000000000000E-01
(PID.TID 0000.0001)     ;
(PID.TID 0000.0001) atm_Po =    /* standard reference pressure ( Pa ) */
(PID.TID 0000.0001)                 1.000000000000000E+05
(PID.TID 0000.0001)     ;
(PID.TID 0000.0001) thetaConst= /* constant reference for potential temperature ( K ) */
(PID.TID 0000.0001)                 2.951000000000000E+02
(PID.TID 0000.0001)     ;
(PID.TID 0000.0001) integr_GeoPot =  /* select how the geopotential is integrated */
(PID.TID 0000.0001)                       2
(PID.TID 0000.0001)     ;
(PID.TID 0000.0001) selectFindRoSurf=  /* select how Surf.Ref. pressure is defined */
(PID.TID 0000.0001)                       1
(PID.TID 0000.0001)     ;
(PID.TID 0000.0001) rhoConst  = /* Reference density (Boussinesq)  ( kg/m^3 ) */
(PID.TID 0000.0001)                 1.000000000000000E+00
(PID.TID 0000.0001)     ;
(PID.TID 0000.0001) rhoFacC = /* normalized Reference density @ cell-Center (-) */
(PID.TID 0000.0001)    26 @  1.000000000000000E+00              /* K =  1: 26 */
(PID.TID 0000.0001)     ;
(PID.TID 0000.0001) rhoFacF = /* normalized Reference density @ W-Interface (-) */
(PID.TID 0000.0001)    27 @  1.000000000000000E+00              /* K =  1: 27 */
(PID.TID 0000.0001)     ;
(PID.TID 0000.0001) rhoConstFresh = /* Fresh-water reference density ( kg/m^3 ) */
(PID.TID 0000.0001)                 1.000000000000000E+00
(PID.TID 0000.0001)     ;
(PID.TID 0000.0001) gravity =   /* Gravitational acceleration ( m/s^2 ) */
(PID.TID 0000.0001)                 9.800000000000001E+00
(PID.TID 0000.0001)     ;
(PID.TID 0000.0001) gBaro =   /* Barotropic gravity ( m/s^2 ) */
(PID.TID 0000.0001)                 9.800000000000001E+00
(PID.TID 0000.0001)     ;
(PID.TID 0000.0001) rotationPeriod =   /* Rotation Period ( s ) */
(PID.TID 0000.0001)                 8.616400000000000E+04
(PID.TID 0000.0001)     ;
(PID.TID 0000.0001) omega =   /* Angular velocity ( rad/s ) */
(PID.TID 0000.0001)                 7.292123516990375E-05
(PID.TID 0000.0001)     ;
(PID.TID 0000.0001) f0 =   /* Reference coriolis parameter ( 1/s ) */
(PID.TID 0000.0001)                 1.000000000000000E-04
(PID.TID 0000.0001)     ;
(PID.TID 0000.0001) beta =   /* Beta ( 1/(m.s) ) */
(PID.TID 0000.0001)                 9.999999999999999E-12
(PID.TID 0000.0001)     ;
(PID.TID 0000.0001) fPrime =   /* Second coriolis parameter ( 1/s ) */
(PID.TID 0000.0001)                 0.000000000000000E+00
(PID.TID 0000.0001)     ;
(PID.TID 0000.0001) rigidLid =   /* Rigid lid on/off flag */
(PID.TID 0000.0001)                   F
(PID.TID 0000.0001)     ;
(PID.TID 0000.0001) implicitFreeSurface =   /* Implicit free surface on/off flag */
(PID.TID 0000.0001)                   T
(PID.TID 0000.0001)     ;
(PID.TID 0000.0001) freeSurfFac =   /* Implicit free surface factor */
(PID.TID 0000.0001)                 1.000000000000000E+00
(PID.TID 0000.0001)     ;
(PID.TID 0000.0001) implicSurfPress =  /* Surface Pressure implicit factor (0-1)*/
(PID.TID 0000.0001)                 1.000000000000000E+00
(PID.TID 0000.0001)     ;
(PID.TID 0000.0001) implicDiv2Dflow =  /* Barot. Flow Div. implicit factor (0-1)*/
(PID.TID 0000.0001)                 1.000000000000000E+00
(PID.TID 0000.0001)     ;
(PID.TID 0000.0001) uniformLin_PhiSurf = /* use uniform Bo_surf on/off flag*/
(PID.TID 0000.0001)                   F
(PID.TID 0000.0001)     ;
(PID.TID 0000.0001) uniformFreeSurfLev = /* free-surface level-index is uniform */
(PID.TID 0000.0001)                   F
(PID.TID 0000.0001)     ;
(PID.TID 0000.0001) hFacMin =   /* minimum partial cell factor (hFac) */
(PID.TID 0000.0001)                 1.000000000000000E+00
(PID.TID 0000.0001)     ;
(PID.TID 0000.0001) hFacMinDr = /* minimum partial cell thickness (Pa) */
(PID.TID 0000.0001)                 0.000000000000000E+00
(PID.TID 0000.0001)     ;
(PID.TID 0000.0001) exactConserv =  /* Exact Volume Conservation on/off flag*/
(PID.TID 0000.0001)                   T
(PID.TID 0000.0001)     ;
(PID.TID 0000.0001) linFSConserveTr = /* Tracer correction for Lin Free Surface on/off flag*/
(PID.TID 0000.0001)                   F
(PID.TID 0000.0001)     ;
(PID.TID 0000.0001) nonlinFreeSurf = /* Non-linear Free Surf. options (-1,0,1,2,3)*/
(PID.TID 0000.0001)                       4
(PID.TID 0000.0001)      -1,0= Off ; 1,2,3= On, 2=+rescale gU,gV, 3=+update cg2d solv.
(PID.TID 0000.0001)     ;
(PID.TID 0000.0001) hFacInf =   /* lower threshold for hFac (nonlinFreeSurf only)*/
(PID.TID 0000.0001)                 2.000000000000000E-01
(PID.TID 0000.0001)     ;
(PID.TID 0000.0001) hFacSup =   /* upper threshold for hFac (nonlinFreeSurf only)*/
(PID.TID 0000.0001)                 2.000000000000000E+00
(PID.TID 0000.0001)     ;
(PID.TID 0000.0001) select_rStar = /* r* Vertical coord. options (=0 r coord.; >0 uses r*)*/
(PID.TID 0000.0001)                       2
(PID.TID 0000.0001)     ;
(PID.TID 0000.0001) useRealFreshWaterFlux = /* Real Fresh Water Flux on/off flag*/
(PID.TID 0000.0001)                   F
(PID.TID 0000.0001)     ;
(PID.TID 0000.0001) temp_EvPrRn = /* Temp. of Evap/Prec/R (UNSET=use local T)(oC)*/
(PID.TID 0000.0001)                 1.234567000000000E+05
(PID.TID 0000.0001)     ;
(PID.TID 0000.0001) salt_EvPrRn = /* Salin. of Evap/Prec/R (UNSET=use local S)(psu)*/
(PID.TID 0000.0001)                 0.000000000000000E+00
(PID.TID 0000.0001)     ;
(PID.TID 0000.0001) selectAddFluid = /* option for mass source/sink of fluid (=0: off) */
(PID.TID 0000.0001)                       0
(PID.TID 0000.0001)     ;
(PID.TID 0000.0001) temp_addMass = /* Temp. of addMass array (UNSET=use local T)(oC)*/
(PID.TID 0000.0001)                 1.234567000000000E+05
(PID.TID 0000.0001)     ;
(PID.TID 0000.0001) salt_addMass = /* Salin. of addMass array (UNSET=use local S)(psu)*/
(PID.TID 0000.0001)                 0.000000000000000E+00
(PID.TID 0000.0001)     ;
(PID.TID 0000.0001) convertFW2Salt = /* convert F.W. Flux to Salt Flux (-1=use local S)(psu)*/
(PID.TID 0000.0001)                 3.500000000000000E+01
(PID.TID 0000.0001)     ;
(PID.TID 0000.0001) use3Dsolver = /* use 3-D pressure solver on/off flag */
(PID.TID 0000.0001)                   F
(PID.TID 0000.0001)     ;
(PID.TID 0000.0001) nonHydrostatic =  /* Non-Hydrostatic on/off flag */
(PID.TID 0000.0001)                   F
(PID.TID 0000.0001)     ;
(PID.TID 0000.0001) nh_Am2 = /* Non-Hydrostatic terms scaling factor */
(PID.TID 0000.0001)                 1.000000000000000E+00
(PID.TID 0000.0001)     ;
(PID.TID 0000.0001) implicitNHPress = /* Non-Hyd Pressure implicit factor (0-1)*/
(PID.TID 0000.0001)                 1.000000000000000E+00
(PID.TID 0000.0001)     ;
(PID.TID 0000.0001) selectNHfreeSurf = /* Non-Hyd (free-)Surface option */
(PID.TID 0000.0001)                       0
(PID.TID 0000.0001)     ;
(PID.TID 0000.0001) quasiHydrostatic = /* Quasi-Hydrostatic on/off flag */
(PID.TID 0000.0001)                   F
(PID.TID 0000.0001)     ;
(PID.TID 0000.0001) calc_wVelocity = /* vertical velocity calculation on/off flag */
(PID.TID 0000.0001)                   T
(PID.TID 0000.0001)     ;
(PID.TID 0000.0001) momStepping =  /* Momentum equation on/off flag */
(PID.TID 0000.0001)                   T
(PID.TID 0000.0001)     ;
(PID.TID 0000.0001) vectorInvariantMomentum= /* Vector-Invariant Momentum on/off */
(PID.TID 0000.0001)                   T
(PID.TID 0000.0001)     ;
(PID.TID 0000.0001) momAdvection =  /* Momentum advection on/off flag */
(PID.TID 0000.0001)                   T
(PID.TID 0000.0001)     ;
(PID.TID 0000.0001) momViscosity =  /* Momentum viscosity on/off flag */
(PID.TID 0000.0001)                   T
(PID.TID 0000.0001)     ;
(PID.TID 0000.0001) momImplVertAdv= /* Momentum implicit vert. advection on/off*/
(PID.TID 0000.0001)                   F
(PID.TID 0000.0001)     ;
(PID.TID 0000.0001) implicitViscosity = /* Implicit viscosity on/off flag */
(PID.TID 0000.0001)                   F
(PID.TID 0000.0001)     ;
(PID.TID 0000.0001) metricTerms =  /* metric-Terms on/off flag */
(PID.TID 0000.0001)                   F
(PID.TID 0000.0001)     ;
(PID.TID 0000.0001) useNHMTerms = /* Non-Hydrostatic Metric-Terms on/off */
(PID.TID 0000.0001)                   F
(PID.TID 0000.0001)     ;
(PID.TID 0000.0001) selectCoriMap = /* Coriolis Map options (0,1,2,3)*/
(PID.TID 0000.0001)                       2
(PID.TID 0000.0001)     0= f-Plane ; 1= Beta-Plane ; 2= Spherical ; 3= read from file
(PID.TID 0000.0001)     ;
(PID.TID 0000.0001) use3dCoriolis = /* 3-D Coriolis on/off flag */
(PID.TID 0000.0001)                   F
(PID.TID 0000.0001)     ;
(PID.TID 0000.0001) useCoriolis =  /* Coriolis on/off flag */
(PID.TID 0000.0001)                   T
(PID.TID 0000.0001)     ;
(PID.TID 0000.0001) useCDscheme =  /* CD scheme on/off flag */
(PID.TID 0000.0001)                   F
(PID.TID 0000.0001)     ;
(PID.TID 0000.0001) useEnergyConservingCoriolis= /* Flx-Form Coriolis scheme flag */
(PID.TID 0000.0001)                   F
(PID.TID 0000.0001)     ;
(PID.TID 0000.0001) useJamartWetPoints= /* Coriolis WetPoints method flag */
(PID.TID 0000.0001)                   F
(PID.TID 0000.0001)     ;
(PID.TID 0000.0001) useJamartMomAdv= /* V.I Non-linear terms Jamart flag */
(PID.TID 0000.0001)                   F
(PID.TID 0000.0001)     ;
(PID.TID 0000.0001) useAbsVorticity= /* V.I Works with f+zeta in Coriolis */
(PID.TID 0000.0001)                   T
(PID.TID 0000.0001)     ;
(PID.TID 0000.0001) selectVortScheme= /* V.I Scheme selector for Vorticity-Term */
(PID.TID 0000.0001)                       3
(PID.TID 0000.0001)    = 0 : enstrophy (Shallow-Water Eq.) conserving scheme by Sadourny, JAS 75
(PID.TID 0000.0001)    = 1 : same as 0 with modified hFac
(PID.TID 0000.0001)    = 2 : energy conserving scheme (used by Sadourny in JAS 75 paper)
(PID.TID 0000.0001)    = 3 : energy (general) and enstrophy (2D, nonDiv.) conserving scheme
(PID.TID 0000.0001)          from Sadourny (Burridge & Haseler, ECMWF Rep.4, 1977)
(PID.TID 0000.0001)     ;
(PID.TID 0000.0001) upwindVorticity= /* V.I Upwind bias vorticity flag */
(PID.TID 0000.0001)                   F
(PID.TID 0000.0001)     ;
(PID.TID 0000.0001) highOrderVorticity= /* V.I High order vort. advect. flag */
(PID.TID 0000.0001)                   F
(PID.TID 0000.0001)     ;
(PID.TID 0000.0001) upwindShear= /* V.I Upwind vertical Shear advection flag */
(PID.TID 0000.0001)                   F
(PID.TID 0000.0001)     ;
(PID.TID 0000.0001) selectKEscheme= /* V.I Kinetic Energy scheme selector */
(PID.TID 0000.0001)                       3
(PID.TID 0000.0001)     ;
(PID.TID 0000.0001) momForcing =  /* Momentum forcing on/off flag */
(PID.TID 0000.0001)                   T
(PID.TID 0000.0001)     ;
(PID.TID 0000.0001) momPressureForcing =  /* Momentum pressure term on/off flag */
(PID.TID 0000.0001)                   T
(PID.TID 0000.0001)     ;
(PID.TID 0000.0001) implicitIntGravWave= /* Implicit Internal Gravity Wave flag */
(PID.TID 0000.0001)                   F
(PID.TID 0000.0001)     ;
(PID.TID 0000.0001) staggerTimeStep =    /* Stagger time stepping on/off flag */
(PID.TID 0000.0001)                   T
(PID.TID 0000.0001)     ;
(PID.TID 0000.0001) doResetHFactors = /* reset thickness factors @ each time-step */
(PID.TID 0000.0001)                   F
(PID.TID 0000.0001)     ;
(PID.TID 0000.0001) multiDimAdvection =  /* enable/disable Multi-Dim Advection */
(PID.TID 0000.0001)                   T
(PID.TID 0000.0001)     ;
(PID.TID 0000.0001) useMultiDimAdvec =   /* Multi-Dim Advection is/is-not used */
(PID.TID 0000.0001)                   T
(PID.TID 0000.0001)     ;
(PID.TID 0000.0001) implicitDiffusion = /* Implicit Diffusion on/off flag */
(PID.TID 0000.0001)                   F
(PID.TID 0000.0001)     ;
(PID.TID 0000.0001) tempStepping =  /* Temperature equation on/off flag */
(PID.TID 0000.0001)                   T
(PID.TID 0000.0001)     ;
(PID.TID 0000.0001) tempAdvection = /* Temperature advection on/off flag */
(PID.TID 0000.0001)                   T
(PID.TID 0000.0001)     ;
(PID.TID 0000.0001) tempImplVertAdv = /* Temp. implicit vert. advection on/off */
(PID.TID 0000.0001)                   F
(PID.TID 0000.0001)     ;
(PID.TID 0000.0001) tempForcing  =  /* Temperature forcing on/off flag */
(PID.TID 0000.0001)                   T
(PID.TID 0000.0001)     ;
(PID.TID 0000.0001) addFrictionHeating= /* account for frictional heating */
(PID.TID 0000.0001)                   T
(PID.TID 0000.0001)     ;
(PID.TID 0000.0001) doThetaClimRelax = /* apply SST relaxation on/off flag */
(PID.TID 0000.0001)                   F
(PID.TID 0000.0001)     ;
(PID.TID 0000.0001) tempIsActiveTr = /* Temp. is a dynamically Active Tracer */
(PID.TID 0000.0001)                   T
(PID.TID 0000.0001)     ;
(PID.TID 0000.0001) saltStepping =  /* Salinity equation on/off flag */
(PID.TID 0000.0001)                   T
(PID.TID 0000.0001)     ;
(PID.TID 0000.0001) saltAdvection = /* Salinity advection on/off flag */
(PID.TID 0000.0001)                   T
(PID.TID 0000.0001)     ;
(PID.TID 0000.0001) saltImplVertAdv = /* Sali. implicit vert. advection on/off */
(PID.TID 0000.0001)                   F
(PID.TID 0000.0001)     ;
(PID.TID 0000.0001) saltForcing  =  /* Salinity forcing on/off flag */
(PID.TID 0000.0001)                   T
(PID.TID 0000.0001)     ;
(PID.TID 0000.0001) doSaltClimRelax = /* apply SSS relaxation on/off flag */
(PID.TID 0000.0001)                   F
(PID.TID 0000.0001)     ;
(PID.TID 0000.0001) saltIsActiveTr = /* Salt  is a dynamically Active Tracer */
(PID.TID 0000.0001)                   T
(PID.TID 0000.0001)     ;
(PID.TID 0000.0001)  readBinaryPrec = /* Precision used for reading binary files */
(PID.TID 0000.0001)                      64
(PID.TID 0000.0001)     ;
(PID.TID 0000.0001) writeBinaryPrec = /* Precision used for writing binary files */
(PID.TID 0000.0001)                      64
(PID.TID 0000.0001)     ;
(PID.TID 0000.0001)  globalFiles = /* write "global" (=not per tile) files */
(PID.TID 0000.0001)                   F
(PID.TID 0000.0001)     ;
(PID.TID 0000.0001)  useSingleCpuIO = /* only master MPI process does I/O */
(PID.TID 0000.0001)                   F
(PID.TID 0000.0001)     ;
(PID.TID 0000.0001)  useSingleCpuInput = /* only master process reads input */
(PID.TID 0000.0001)                   F
(PID.TID 0000.0001)     ;
(PID.TID 0000.0001) /* debLev[*]  : level of debug & auxiliary message printing */
(PID.TID 0000.0001) debLevZero =  0 ; /* level of disabled aux. msg printing */
(PID.TID 0000.0001)    debLevA =  1 ; /* level of minimum  aux. msg printing */
(PID.TID 0000.0001)    debLevB =  2 ; /* level of low aux. print (report read-file opening)*/
(PID.TID 0000.0001)    debLevC =  3 ; /* level of moderate debug prt (most pkgs debug msg) */
(PID.TID 0000.0001)    debLevD =  4 ; /* level of enhanced debug prt (add DEBUG_STATS prt) */
(PID.TID 0000.0001)    debLevE =  5 ; /* level of extensive debug printing */
(PID.TID 0000.0001) debugLevel =  /* select debug printing level */
(PID.TID 0000.0001)                       2
(PID.TID 0000.0001)     ;
(PID.TID 0000.0001) //
(PID.TID 0000.0001) // Elliptic solver(s) paramters ( PARM02 in namelist )
(PID.TID 0000.0001) //
(PID.TID 0000.0001) cg2dMaxIters =   /* Upper limit on 2d con. grad iterations  */
(PID.TID 0000.0001)                     200
(PID.TID 0000.0001)     ;
(PID.TID 0000.0001) cg2dChkResFreq =   /* 2d con. grad convergence test frequency */
(PID.TID 0000.0001)                       1
(PID.TID 0000.0001)     ;
(PID.TID 0000.0001) cg2dUseMinResSol= /* use cg2d last-iter(=0) / min-resid.(=1) solution */
(PID.TID 0000.0001)                       0
(PID.TID 0000.0001)     ;
(PID.TID 0000.0001) cg2dTargetResidual =   /* 2d con. grad target residual  */
(PID.TID 0000.0001)                 1.000000000000000E-07
(PID.TID 0000.0001)     ;
(PID.TID 0000.0001) cg2dTargetResWunit =   /* CG2d target residual [W units] */
(PID.TID 0000.0001)                 1.000000000000000E-17
(PID.TID 0000.0001)     ;
(PID.TID 0000.0001) cg2dPreCondFreq =   /* Freq. for updating cg2d preconditioner */
(PID.TID 0000.0001)                       1
(PID.TID 0000.0001)     ;
(PID.TID 0000.0001) useSRCGSolver =  /* use single reduction CG solver(s) */
(PID.TID 0000.0001)                   F
(PID.TID 0000.0001)     ;
(PID.TID 0000.0001) printResidualFreq = /* Freq. for printing CG residual */
(PID.TID 0000.0001)                       0
(PID.TID 0000.0001)     ;
(PID.TID 0000.0001) //
(PID.TID 0000.0001) // Time stepping paramters ( PARM03 in namelist )
(PID.TID 0000.0001) //
(PID.TID 0000.0001) deltaTMom =   /* Momentum equation timestep ( s ) */
(PID.TID 0000.0001)                 3.600000000000000E+02
(PID.TID 0000.0001)     ;
(PID.TID 0000.0001) deltaTFreeSurf = /* FreeSurface equation timestep ( s ) */
(PID.TID 0000.0001)                 3.600000000000000E+02
(PID.TID 0000.0001)     ;
(PID.TID 0000.0001) dTtracerLev =  /* Tracer equation timestep ( s ) */
(PID.TID 0000.0001)    26 @  3.600000000000000E+02              /* K =  1: 26 */
(PID.TID 0000.0001)     ;
(PID.TID 0000.0001) deltaTClock  =   /* Model clock timestep ( s ) */
(PID.TID 0000.0001)                 3.600000000000000E+02
(PID.TID 0000.0001)     ;
(PID.TID 0000.0001) cAdjFreq =   /* Convective adjustment interval ( s ) */
(PID.TID 0000.0001)                 0.000000000000000E+00
(PID.TID 0000.0001)     ;
(PID.TID 0000.0001) momForcingOutAB = /* =1: take Momentum Forcing out of Adams-Bash. stepping */
(PID.TID 0000.0001)                       1
(PID.TID 0000.0001)     ;
(PID.TID 0000.0001) tracForcingOutAB = /* =1: take T,S,pTr Forcing out of Adams-Bash. stepping */
(PID.TID 0000.0001)                       1
(PID.TID 0000.0001)     ;
(PID.TID 0000.0001) momDissip_In_AB = /* put Dissipation Tendency in Adams-Bash. stepping */
(PID.TID 0000.0001)                   T
(PID.TID 0000.0001)     ;
(PID.TID 0000.0001) doAB_onGtGs = /* apply AB on Tendencies (rather than on T,S)*/
(PID.TID 0000.0001)                   T
(PID.TID 0000.0001)     ;
(PID.TID 0000.0001) abEps =   /* Adams-Bashforth-2 stabilizing weight */
(PID.TID 0000.0001)                 1.000000000000000E-01
(PID.TID 0000.0001)     ;
(PID.TID 0000.0001) pickupStrictlyMatch= /* stop if pickup do not strictly match */
(PID.TID 0000.0001)                   T
(PID.TID 0000.0001)     ;
(PID.TID 0000.0001) nIter0   =   /* Run starting timestep number */
(PID.TID 0000.0001)                       0
(PID.TID 0000.0001)     ;
(PID.TID 0000.0001) nTimeSteps = /* Number of timesteps */
(PID.TID 0000.0001)                      40
(PID.TID 0000.0001)     ;
(PID.TID 0000.0001) nEndIter =   /* Run ending timestep number */
(PID.TID 0000.0001)                      40
(PID.TID 0000.0001)     ;
(PID.TID 0000.0001) baseTime =   /* Model base time ( s ) */
(PID.TID 0000.0001)                 0.000000000000000E+00
(PID.TID 0000.0001)     ;
(PID.TID 0000.0001) startTime =  /* Run start time ( s ) */
(PID.TID 0000.0001)                 0.000000000000000E+00
(PID.TID 0000.0001)     ;
(PID.TID 0000.0001) endTime  =   /* Integration ending time ( s ) */
(PID.TID 0000.0001)                 1.440000000000000E+04
(PID.TID 0000.0001)     ;
(PID.TID 0000.0001) pChkPtFreq = /* Permanent restart/pickup file interval ( s ) */
(PID.TID 0000.0001)                 2.488320000000000E+08
(PID.TID 0000.0001)     ;
(PID.TID 0000.0001) chkPtFreq  = /* Rolling restart/pickup file interval ( s ) */
(PID.TID 0000.0001)                 6.220800000000000E+07
(PID.TID 0000.0001)     ;
(PID.TID 0000.0001) pickup_write_mdsio =   /* Model IO flag. */
(PID.TID 0000.0001)                   T
(PID.TID 0000.0001)     ;
(PID.TID 0000.0001) pickup_read_mdsio =   /* Model IO flag. */
(PID.TID 0000.0001)                   T
(PID.TID 0000.0001)     ;
(PID.TID 0000.0001) pickup_write_immed =   /* Model IO flag. */
(PID.TID 0000.0001)                   F
(PID.TID 0000.0001)     ;
(PID.TID 0000.0001) writePickupAtEnd =   /* Model IO flag. */
(PID.TID 0000.0001)                   T
(PID.TID 0000.0001)     ;
(PID.TID 0000.0001) dumpFreq =   /* Model state write out interval ( s ). */
(PID.TID 0000.0001)                 3.110400000000000E+07
(PID.TID 0000.0001)     ;
(PID.TID 0000.0001) dumpInitAndLast= /* write out Initial & Last iter. model state */
(PID.TID 0000.0001)                   T
(PID.TID 0000.0001)     ;
(PID.TID 0000.0001) snapshot_mdsio =   /* Model IO flag. */
(PID.TID 0000.0001)                   T
(PID.TID 0000.0001)     ;
(PID.TID 0000.0001) monitorFreq =   /* Monitor output interval ( s ). */
(PID.TID 0000.0001)                 1.000000000000000E+00
(PID.TID 0000.0001)     ;
(PID.TID 0000.0001) monitorSelect = /* select group of variables to monitor */
(PID.TID 0000.0001)                       2
(PID.TID 0000.0001)     ;
(PID.TID 0000.0001) monitor_stdio =   /* Model IO flag. */
(PID.TID 0000.0001)                   T
(PID.TID 0000.0001)     ;
(PID.TID 0000.0001) externForcingPeriod =   /* forcing period (s) */
(PID.TID 0000.0001)                 0.000000000000000E+00
(PID.TID 0000.0001)     ;
(PID.TID 0000.0001) externForcingCycle =   /* period of the cyle (s). */
(PID.TID 0000.0001)                 0.000000000000000E+00
(PID.TID 0000.0001)     ;
(PID.TID 0000.0001) tauThetaClimRelax =   /* relaxation time scale (s) */
(PID.TID 0000.0001)                 0.000000000000000E+00
(PID.TID 0000.0001)     ;
(PID.TID 0000.0001) tauSaltClimRelax =   /* relaxation time scale (s) */
(PID.TID 0000.0001)                 0.000000000000000E+00
(PID.TID 0000.0001)     ;
(PID.TID 0000.0001) latBandClimRelax =   /* max. Lat. where relaxation */
(PID.TID 0000.0001)                 1.800000000000000E+02
(PID.TID 0000.0001)     ;
(PID.TID 0000.0001) //
(PID.TID 0000.0001) // Gridding paramters ( PARM04 in namelist )
(PID.TID 0000.0001) //
(PID.TID 0000.0001) usingCartesianGrid = /* Cartesian coordinates flag ( True/False ) */
(PID.TID 0000.0001)                   F
(PID.TID 0000.0001)     ;
(PID.TID 0000.0001) usingCylindricalGrid = /* Cylindrical coordinates flag ( True/False ) */
(PID.TID 0000.0001)                   F
(PID.TID 0000.0001)     ;
(PID.TID 0000.0001) usingSphericalPolarGrid = /* Spherical coordinates flag ( True/False ) */
(PID.TID 0000.0001)                   F
(PID.TID 0000.0001)     ;
(PID.TID 0000.0001) usingCurvilinearGrid = /* Curvilinear coordinates flag ( True/False ) */
(PID.TID 0000.0001)                   T
(PID.TID 0000.0001)     ;
(PID.TID 0000.0001) selectSigmaCoord = /* Hybrid-Sigma Vert. Coordinate option */
(PID.TID 0000.0001)                       0
(PID.TID 0000.0001)     ;
(PID.TID 0000.0001) Ro_SeaLevel = /* r(1) ( units of r == Pa ) */
(PID.TID 0000.0001)                 1.000000000000000E+05
(PID.TID 0000.0001)     ;
(PID.TID 0000.0001) rSigmaBnd = /* r/sigma transition ( units of r == Pa ) */
(PID.TID 0000.0001)                 1.234567000000000E+05
(PID.TID 0000.0001)     ;
(PID.TID 0000.0001) rkSign =   /* index orientation relative to vertical coordinate */
(PID.TID 0000.0001)                -1.000000000000000E+00
(PID.TID 0000.0001)     ;
(PID.TID 0000.0001) gravitySign = /* gravity orientation relative to vertical coordinate */
(PID.TID 0000.0001)                 1.000000000000000E+00
(PID.TID 0000.0001)     ;
(PID.TID 0000.0001) mass2rUnit = /* convert mass per unit area [kg/m2] to r-units [Pa] */
(PID.TID 0000.0001)                 9.800000000000001E+00
(PID.TID 0000.0001)     ;
(PID.TID 0000.0001) rUnit2mass = /* convert r-units [Pa] to mass per unit area [kg/m2] */
(PID.TID 0000.0001)                 1.020408163265306E-01
(PID.TID 0000.0001)     ;
(PID.TID 0000.0001) drC =   /* C spacing ( units of r ) */
(PID.TID 0000.0001)                 7.500000000000000E+02,      /* K =  1 */
(PID.TID 0000.0001)                 1.811000000000000E+03,      /* K =  2 */
(PID.TID 0000.0001)                 2.561000000000000E+03,      /* K =  3 */
(PID.TID 0000.0001)                 3.621000000000000E+03,      /* K =  4 */
(PID.TID 0000.0001)                 5.121000000000000E+03,      /* K =  5 */
(PID.TID 0000.0001)                 6.900000000000000E+03,      /* K =  6 */
(PID.TID 0000.0001)                 8.450000000000000E+03,      /* K =  7 */
(PID.TID 0000.0001)                 9.250000000000000E+03,      /* K =  8 */
(PID.TID 0000.0001)                 9.340000000000000E+03,      /* K =  9 */
(PID.TID 0000.0001)                 8.840000000000000E+03,      /* K = 10 */
(PID.TID 0000.0001)                 7.690000000000000E+03,      /* K = 11 */
(PID.TID 0000.0001)                 6.390000000000000E+03,      /* K = 12 */
(PID.TID 0000.0001)                 5.310000000000000E+03,      /* K = 13 */
(PID.TID 0000.0001)                 4.412000000000000E+03,      /* K = 14 */
(PID.TID 0000.0001)                 3.666000000000000E+03,      /* K = 15 */
(PID.TID 0000.0001)                 3.047000000000000E+03,      /* K = 16 */
(PID.TID 0000.0001)                 2.532000000000000E+03,      /* K = 17 */
(PID.TID 0000.0001)                 2.104000000000000E+03,      /* K = 18 */
(PID.TID 0000.0001)                 1.748000000000000E+03,      /* K = 19 */
(PID.TID 0000.0001)                 1.452000000000000E+03,      /* K = 20 */
(PID.TID 0000.0001)                 1.207000000000000E+03,      /* K = 21 */
(PID.TID 0000.0001)                 1.003000000000000E+03,      /* K = 22 */
(PID.TID 0000.0001)                 8.330000000000000E+02,      /* K = 23 */
(PID.TID 0000.0001)                 6.920000000000000E+02,      /* K = 24 */
(PID.TID 0000.0001)                 5.750000000000000E+02,      /* K = 25 */
(PID.TID 0000.0001)                 4.780000000000000E+02,      /* K = 26 */
(PID.TID 0000.0001)                 2.170000000000000E+02       /* K = 27 */
(PID.TID 0000.0001)     ;
(PID.TID 0000.0001) drF =   /* W spacing ( units of r ) */
(PID.TID 0000.0001)                 1.500000000000000E+03,      /* K =  1 */
(PID.TID 0000.0001)                 2.122000000000000E+03,      /* K =  2 */
(PID.TID 0000.0001)                 3.000000000000000E+03,      /* K =  3 */
(PID.TID 0000.0001)                 4.242000000000000E+03,      /* K =  4 */
(PID.TID 0000.0001)                 6.000000000000000E+03,      /* K =  5 */
(PID.TID 0000.0001)                 7.800000000000000E+03,      /* K =  6 */
(PID.TID 0000.0001)                 9.100000000000000E+03,      /* K =  7 */
(PID.TID 0000.0001)                 9.400000000000000E+03,      /* K =  8 */
(PID.TID 0000.0001)                 9.280000000000000E+03,      /* K =  9 */
(PID.TID 0000.0001)                 8.400000000000000E+03,      /* K = 10 */
(PID.TID 0000.0001)                 6.980000000000000E+03,      /* K = 11 */
(PID.TID 0000.0001)                 5.800000000000000E+03,      /* K = 12 */
(PID.TID 0000.0001)                 4.820000000000000E+03,      /* K = 13 */
(PID.TID 0000.0001)                 4.004000000000000E+03,      /* K = 14 */
(PID.TID 0000.0001)                 3.328000000000000E+03,      /* K = 15 */
(PID.TID 0000.0001)                 2.766000000000000E+03,      /* K = 16 */
(PID.TID 0000.0001)                 2.298000000000000E+03,      /* K = 17 */
(PID.TID 0000.0001)                 1.910000000000000E+03,      /* K = 18 */
(PID.TID 0000.0001)                 1.586000000000000E+03,      /* K = 19 */
(PID.TID 0000.0001)                 1.318000000000000E+03,      /* K = 20 */
(PID.TID 0000.0001)                 1.096000000000000E+03,      /* K = 21 */
(PID.TID 0000.0001)                 9.100000000000000E+02,      /* K = 22 */
(PID.TID 0000.0001)                 7.560000000000000E+02,      /* K = 23 */
(PID.TID 0000.0001)                 6.280000000000000E+02,      /* K = 24 */
(PID.TID 0000.0001)                 5.220000000000000E+02,      /* K = 25 */
(PID.TID 0000.0001)                 4.340000000000000E+02       /* K = 26 */
(PID.TID 0000.0001)     ;
(PID.TID 0000.0001) radius_fromHorizGrid = /* sphere Radius of input horiz. grid */
(PID.TID 0000.0001)                 6.370000000000000E+06
(PID.TID 0000.0001)     ;
(PID.TID 0000.0001) rSphere =  /* Radius ( ignored - cartesian, m - spherical ) */
(PID.TID 0000.0001)                 6.370000000000000E+06
(PID.TID 0000.0001)     ;
(PID.TID 0000.0001) deepAtmosphere = /* Deep/Shallow Atmosphere flag (True/False) */
(PID.TID 0000.0001)                   F
(PID.TID 0000.0001)     ;
(PID.TID 0000.0001) xC =  /* xC(:,1,:,1) : P-point X coord ( deg. or m if cartesian) */
(PID.TID 0000.0001)                -4.439521994760536E+01,      /* I =  1 */
(PID.TID 0000.0001)                -4.295641272275883E+01,      /* I =  2 */
(PID.TID 0000.0001)                -4.122055553388957E+01,      /* I =  3 */
(PID.TID 0000.0001)      . . .
(PID.TID 0000.0001)                 8.070819219728060E+01,      /* I = 46 */
(PID.TID 0000.0001)                 8.439652466417766E+01,      /* I = 47 */
(PID.TID 0000.0001)                 8.812739148696656E+01,      /* I = 48 */
(PID.TID 0000.0001)                 9.187260851303344E+01,      /* I = 49 */
(PID.TID 0000.0001)                 9.560347533582234E+01,      /* I = 50 */
(PID.TID 0000.0001)                 9.929180780271940E+01,      /* I = 51 */
(PID.TID 0000.0001)      . . .
(PID.TID 0000.0001)                 1.321863035748696E+02,      /* I = 94 */
(PID.TID 0000.0001)                 1.337919453120370E+02,      /* I = 95 */
(PID.TID 0000.0001)                 1.350000000000000E+02,      /* I = 96 */
(PID.TID 0000.0001)                 1.356047800523947E+02,      /* I = 97 */
(PID.TID 0000.0001)                 1.358367907661329E+02,      /* I = 98 */
(PID.TID 0000.0001)                 1.359720382181193E+02,      /* I = 99 */
(PID.TID 0000.0001)      . . .
(PID.TID 0000.0001)                -1.336511021209287E+02,      /* I =142 */
(PID.TID 0000.0001)                -1.336469399409420E+02,      /* I =143 */
(PID.TID 0000.0001)                -1.336449032499283E+02,      /* I =144 */
(PID.TID 0000.0001)                -1.336449032499283E+02,      /* I =145 */
(PID.TID 0000.0001)                -1.336469399409420E+02,      /* I =146 */
(PID.TID 0000.0001)                -1.336511021209287E+02,      /* I =147 */
(PID.TID 0000.0001)      . . .
(PID.TID 0000.0001)                 1.378136964251304E+02,      /* I =190 */
(PID.TID 0000.0001)                 1.362080546879630E+02,      /* I =191 */
(PID.TID 0000.0001)                 1.350000000000000E+02       /* I =192 */
(PID.TID 0000.0001)     ;
(PID.TID 0000.0001) yC =  /* yC(1,:,1,:) : P-point Y coord ( deg. or m if cartesian) */
(PID.TID 0000.0001)                -3.497677942598243E+01,      /* J =  1 */
(PID.TID 0000.0001)                -3.374005967394886E+01,      /* J =  2 */
(PID.TID 0000.0001)                -3.220655175667454E+01,      /* J =  3 */
(PID.TID 0000.0001)                -3.045756348838641E+01,      /* J =  4 */
(PID.TID 0000.0001)                -2.853728129852918E+01,      /* J =  5 */
(PID.TID 0000.0001)                -2.647426640173173E+01,      /* J =  6 */
(PID.TID 0000.0001)                -2.428936657094636E+01,      /* J =  7 */
(PID.TID 0000.0001)                -2.199915808312262E+01,      /* J =  8 */
(PID.TID 0000.0001)                -1.961768597440146E+01,      /* J =  9 */
(PID.TID 0000.0001)                -1.715743888281371E+01,      /* J = 10 */
(PID.TID 0000.0001)                -1.462993396899330E+01,      /* J = 11 */
(PID.TID 0000.0001)                -1.204608340464756E+01,      /* J = 12 */
(PID.TID 0000.0001)                -9.416429130284818E+00,      /* J = 13 */
(PID.TID 0000.0001)                -6.751293662992216E+00,      /* J = 14 */
(PID.TID 0000.0001)                -4.060875511835959E+00,      /* J = 15 */
(PID.TID 0000.0001)                -1.355307764409121E+00,      /* J = 16 */
(PID.TID 0000.0001)                 1.355307764409121E+00,      /* J = 17 */
(PID.TID 0000.0001)                 4.060875511835959E+00,      /* J = 18 */
(PID.TID 0000.0001)                 6.751293662992216E+00,      /* J = 19 */
(PID.TID 0000.0001)                 9.416429130284818E+00,      /* J = 20 */
(PID.TID 0000.0001)                 1.204608340464756E+01,      /* J = 21 */
(PID.TID 0000.0001)                 1.462993396899330E+01,      /* J = 22 */
(PID.TID 0000.0001)                 1.715743888281371E+01,      /* J = 23 */
(PID.TID 0000.0001)                 1.961768597440146E+01,      /* J = 24 */
(PID.TID 0000.0001)                 2.199915808312262E+01,      /* J = 25 */
(PID.TID 0000.0001)                 2.428936657094636E+01,      /* J = 26 */
(PID.TID 0000.0001)                 2.647426640173173E+01,      /* J = 27 */
(PID.TID 0000.0001)                 2.853728129852918E+01,      /* J = 28 */
(PID.TID 0000.0001)                 3.045756348838641E+01,      /* J = 29 */
(PID.TID 0000.0001)                 3.220655175667454E+01,      /* J = 30 */
(PID.TID 0000.0001)                 3.374005967394886E+01,      /* J = 31 */
(PID.TID 0000.0001)                 3.497677942598243E+01       /* J = 32 */
(PID.TID 0000.0001)     ;
(PID.TID 0000.0001) rcoord = /* P-point R coordinate (  units of r ) */
(PID.TID 0000.0001)                 9.925000000000000E+04,      /* K =  1 */
(PID.TID 0000.0001)                 9.743900000000000E+04,      /* K =  2 */
(PID.TID 0000.0001)                 9.487800000000000E+04,      /* K =  3 */
(PID.TID 0000.0001)                 9.125700000000000E+04,      /* K =  4 */
(PID.TID 0000.0001)                 8.613600000000000E+04,      /* K =  5 */
(PID.TID 0000.0001)                 7.923600000000000E+04,      /* K =  6 */
(PID.TID 0000.0001)                 7.078600000000000E+04,      /* K =  7 */
(PID.TID 0000.0001)                 6.153600000000000E+04,      /* K =  8 */
(PID.TID 0000.0001)                 5.219600000000000E+04,      /* K =  9 */
(PID.TID 0000.0001)                 4.335600000000000E+04,      /* K = 10 */
(PID.TID 0000.0001)                 3.566600000000000E+04,      /* K = 11 */
(PID.TID 0000.0001)                 2.927600000000000E+04,      /* K = 12 */
(PID.TID 0000.0001)                 2.396600000000000E+04,      /* K = 13 */
(PID.TID 0000.0001)                 1.955400000000000E+04,      /* K = 14 */
(PID.TID 0000.0001)                 1.588800000000000E+04,      /* K = 15 */
(PID.TID 0000.0001)                 1.284100000000000E+04,      /* K = 16 */
(PID.TID 0000.0001)                 1.030900000000000E+04,      /* K = 17 */
(PID.TID 0000.0001)                 8.205000000000000E+03,      /* K = 18 */
(PID.TID 0000.0001)                 6.457000000000000E+03,      /* K = 19 */
(PID.TID 0000.0001)                 5.005000000000000E+03,      /* K = 20 */
(PID.TID 0000.0001)                 3.798000000000000E+03,      /* K = 21 */
(PID.TID 0000.0001)                 2.795000000000000E+03,      /* K = 22 */
(PID.TID 0000.0001)                 1.962000000000000E+03,      /* K = 23 */
(PID.TID 0000.0001)                 1.270000000000000E+03,      /* K = 24 */
(PID.TID 0000.0001)                 6.950000000000000E+02,      /* K = 25 */
(PID.TID 0000.0001)                 2.170000000000000E+02       /* K = 26 */
(PID.TID 0000.0001)     ;
(PID.TID 0000.0001) rF =   /* W-Interf. R coordinate (  units of r ) */
(PID.TID 0000.0001)                 1.000000000000000E+05,      /* K =  1 */
(PID.TID 0000.0001)                 9.850000000000000E+04,      /* K =  2 */
(PID.TID 0000.0001)                 9.637800000000000E+04,      /* K =  3 */
(PID.TID 0000.0001)                 9.337800000000000E+04,      /* K =  4 */
(PID.TID 0000.0001)                 8.913600000000000E+04,      /* K =  5 */
(PID.TID 0000.0001)                 8.313600000000000E+04,      /* K =  6 */
(PID.TID 0000.0001)                 7.533600000000000E+04,      /* K =  7 */
(PID.TID 0000.0001)                 6.623600000000000E+04,      /* K =  8 */
(PID.TID 0000.0001)                 5.683600000000000E+04,      /* K =  9 */
(PID.TID 0000.0001)                 4.755600000000000E+04,      /* K = 10 */
(PID.TID 0000.0001)                 3.915600000000000E+04,      /* K = 11 */
(PID.TID 0000.0001)                 3.217600000000000E+04,      /* K = 12 */
(PID.TID 0000.0001)                 2.637600000000000E+04,      /* K = 13 */
(PID.TID 0000.0001)                 2.155600000000000E+04,      /* K = 14 */
(PID.TID 0000.0001)                 1.755200000000000E+04,      /* K = 15 */
(PID.TID 0000.0001)                 1.422400000000000E+04,      /* K = 16 */
(PID.TID 0000.0001)                 1.145800000000000E+04,      /* K = 17 */
(PID.TID 0000.0001)                 9.160000000000000E+03,      /* K = 18 */
(PID.TID 0000.0001)                 7.250000000000000E+03,      /* K = 19 */
(PID.TID 0000.0001)                 5.664000000000000E+03,      /* K = 20 */
(PID.TID 0000.0001)                 4.346000000000000E+03,      /* K = 21 */
(PID.TID 0000.0001)                 3.250000000000000E+03,      /* K = 22 */
(PID.TID 0000.0001)                 2.340000000000000E+03,      /* K = 23 */
(PID.TID 0000.0001)                 1.584000000000000E+03,      /* K = 24 */
(PID.TID 0000.0001)                 9.560000000000000E+02,      /* K = 25 */
(PID.TID 0000.0001)                 4.340000000000000E+02,      /* K = 26 */
(PID.TID 0000.0001)                 0.000000000000000E+00       /* K = 27 */
(PID.TID 0000.0001)     ;
(PID.TID 0000.0001) deepFacC = /* deep-model grid factor @ cell-Center (-) */
(PID.TID 0000.0001)    26 @  1.000000000000000E+00              /* K =  1: 26 */
(PID.TID 0000.0001)     ;
(PID.TID 0000.0001) deepFacF = /* deep-model grid factor @ W-Interface (-) */
(PID.TID 0000.0001)    27 @  1.000000000000000E+00              /* K =  1: 27 */
(PID.TID 0000.0001)     ;
(PID.TID 0000.0001) rVel2wUnit = /* convert units: rVel -> wSpeed (=1 if z-coord)*/
(PID.TID 0000.0001)                 8.643418775510203E-02,      /* K =  1 */
(PID.TID 0000.0001)                 8.738714281594749E-02,      /* K =  2 */
(PID.TID 0000.0001)                 8.880228539413697E-02,      /* K =  3 */
(PID.TID 0000.0001)                 9.089242929019774E-02,      /* K =  4 */
(PID.TID 0000.0001)                 9.405693947589525E-02,      /* K =  5 */
(PID.TID 0000.0001)                 9.902423118195600E-02,      /* K =  6 */
(PID.TID 0000.0001)                 1.064768002018922E-01,      /* K =  7 */
(PID.TID 0000.0001)                 1.170463961122242E-01,      /* K =  8 */
(PID.TID 0000.0001)                 1.310066026003325E-01,      /* K =  9 */
(PID.TID 0000.0001)                 1.493938920168942E-01,      /* K = 10 */
(PID.TID 0000.0001)                 1.725289602831169E-01,      /* K = 11 */
(PID.TID 0000.0001)                 2.002474459407474E-01,      /* K = 12 */
(PID.TID 0000.0001)                 2.343614310665001E-01,      /* K = 13 */
(PID.TID 0000.0001)                 2.776669889631084E-01,      /* K = 14 */
(PID.TID 0000.0001)                 3.350138715309565E-01,      /* K = 15 */
(PID.TID 0000.0001)                 4.115302688812186E-01,      /* K = 16 */
(PID.TID 0000.0001)                 5.108941627115936E-01,      /* K = 17 */
(PID.TID 0000.0001)                 6.391247399573892E-01,      /* K = 18 */
(PID.TID 0000.0001)                 8.075182125562436E-01,      /* K = 19 */
(PID.TID 0000.0001)                 1.033823213211920E+00,      /* K = 20 */
(PID.TID 0000.0001)                 1.347773276112891E+00,      /* K = 21 */
(PID.TID 0000.0001)                 1.802919824777024E+00,      /* K = 22 */
(PID.TID 0000.0001)                 2.505981061091403E+00,      /* K = 23 */
(PID.TID 0000.0001)                 3.708894241534945E+00,      /* K = 24 */
(PID.TID 0000.0001)                 6.181002019845741E+00,      /* K = 25 */
(PID.TID 0000.0001)                 1.412649152982495E+01,      /* K = 26 */
(PID.TID 0000.0001)                 1.000000000000000E+00       /* K = 27 */
(PID.TID 0000.0001)     ;
(PID.TID 0000.0001) wUnit2rVel = /* convert units: wSpeed -> rVel (=1 if z-coord)*/
(PID.TID 0000.0001)                 1.156949612152712E+01,      /* K =  1 */
(PID.TID 0000.0001)                 1.144333099556961E+01,      /* K =  2 */
(PID.TID 0000.0001)                 1.126097144416537E+01,      /* K =  3 */
(PID.TID 0000.0001)                 1.100201642545211E+01,      /* K =  4 */
(PID.TID 0000.0001)                 1.063185774034545E+01,      /* K =  5 */
(PID.TID 0000.0001)                 1.009853838867489E+01,      /* K =  6 */
(PID.TID 0000.0001)                 9.391717238909184E+00,      /* K =  7 */
(PID.TID 0000.0001)                 8.543620591625897E+00,      /* K =  8 */
(PID.TID 0000.0001)                 7.633203061152140E+00,      /* K =  9 */
(PID.TID 0000.0001)                 6.693714090311771E+00,      /* K = 10 */
(PID.TID 0000.0001)                 5.796128362212453E+00,      /* K = 11 */
(PID.TID 0000.0001)                 4.993821495710346E+00,      /* K = 12 */
(PID.TID 0000.0001)                 4.266913695864273E+00,      /* K = 13 */
(PID.TID 0000.0001)                 3.601436395929884E+00,      /* K = 14 */
(PID.TID 0000.0001)                 2.984951027341554E+00,      /* K = 15 */
(PID.TID 0000.0001)                 2.429954916119751E+00,      /* K = 16 */
(PID.TID 0000.0001)                 1.957352565338495E+00,      /* K = 17 */
(PID.TID 0000.0001)                 1.564639791704309E+00,      /* K = 18 */
(PID.TID 0000.0001)                 1.238362162550421E+00,      /* K = 19 */
(PID.TID 0000.0001)                 9.672833683944502E-01,      /* K = 20 */
(PID.TID 0000.0001)                 7.419645557033876E-01,      /* K = 21 */
(PID.TID 0000.0001)                 5.546558345286792E-01,      /* K = 22 */
(PID.TID 0000.0001)                 3.990453142389196E-01,      /* K = 23 */
(PID.TID 0000.0001)                 2.696221393431119E-01,      /* K = 24 */
(PID.TID 0000.0001)                 1.617860658820747E-01,      /* K = 25 */
(PID.TID 0000.0001)                 7.078898521184275E-02,      /* K = 26 */
(PID.TID 0000.0001)                 1.000000000000000E+00       /* K = 27 */
(PID.TID 0000.0001)     ;
(PID.TID 0000.0001) dBdrRef = /* Vertical grad. of reference buoyancy [(m/s/r)^2] */
(PID.TID 0000.0001)                 0.000000000000000E+00,      /* K =  1 */
(PID.TID 0000.0001)                 1.604020822972663E-07,      /* K =  2 */
(PID.TID 0000.0001)                 2.305314669656972E-07,      /* K =  3 */
(PID.TID 0000.0001)                 1.669031556286163E-07,      /* K =  4 */
(PID.TID 0000.0001)                 2.443043384715506E-07,      /* K =  5 */
(PID.TID 0000.0001)                 2.860066576999341E-07,      /* K =  6 */
(PID.TID 0000.0001)                 2.921875837384485E-07,      /* K =  7 */
(PID.TID 0000.0001)                 3.755074484194814E-07,      /* K =  8 */
(PID.TID 0000.0001)                 5.066322497832424E-07,      /* K =  9 */
(PID.TID 0000.0001)                 7.166887707647536E-07,      /* K = 10 */
(PID.TID 0000.0001)                 1.306741577704211E-06,      /* K = 11 */
(PID.TID 0000.0001)                 3.518055907999274E-06,      /* K = 12 */
(PID.TID 0000.0001)                 8.225060034419378E-06,      /* K = 13 */
(PID.TID 0000.0001)                 1.937860091746120E-05,      /* K = 14 */
(PID.TID 0000.0001)                 4.456361509018920E-05,      /* K = 15 */
(PID.TID 0000.0001)                 8.004656631735151E-05,      /* K = 16 */
(PID.TID 0000.0001)                 1.235417107379588E-04,      /* K = 17 */
(PID.TID 0000.0001)                 1.931534961382523E-04,      /* K = 18 */
(PID.TID 0000.0001)                 3.077255424266486E-04,      /* K = 19 */
(PID.TID 0000.0001)                 5.060735888621455E-04,      /* K = 20 */
(PID.TID 0000.0001)                 8.577447781720473E-04,      /* K = 21 */
(PID.TID 0000.0001)                 1.533315559624654E-03,      /* K = 22 */
(PID.TID 0000.0001)                 2.960876155175189E-03,      /* K = 23 */
(PID.TID 0000.0001)                 6.490610232038748E-03,      /* K = 24 */
(PID.TID 0000.0001)                 1.807701670627409E-02,      /* K = 25 */
(PID.TID 0000.0001)                 9.817506062475811E-02       /* K = 26 */
(PID.TID 0000.0001)     ;
(PID.TID 0000.0001) rotateGrid = /* use rotated grid ( True/False ) */
(PID.TID 0000.0001)                   F
(PID.TID 0000.0001)     ;
(PID.TID 0000.0001) phiEuler = /* Euler angle, rotation about original z-coordinate [rad] */
(PID.TID 0000.0001)                 0.000000000000000E+00
(PID.TID 0000.0001)     ;
(PID.TID 0000.0001) thetaEuler = /* Euler angle, rotation about new x-coordinate [rad] */
(PID.TID 0000.0001)                 0.000000000000000E+00
(PID.TID 0000.0001)     ;
(PID.TID 0000.0001) psiEuler = /* Euler angle, rotation about new z-coordinate [rad] */
(PID.TID 0000.0001)                 0.000000000000000E+00
(PID.TID 0000.0001)     ;
(PID.TID 0000.0001) dxF =  /* dxF(:,1,:,1) ( units: m ) */
(PID.TID 0000.0001)                 1.202082051331828E+05,      /* I =  1 */
(PID.TID 0000.0001)                 1.563594089971120E+05,      /* I =  2 */
(PID.TID 0000.0001)                 1.835530058121492E+05,      /* I =  3 */
(PID.TID 0000.0001)      . . .
(PID.TID 0000.0001)                 2.978501920522794E+05,      /* I = 46 */
(PID.TID 0000.0001)                 3.000967749619962E+05,      /* I = 47 */
(PID.TID 0000.0001)                 3.012190981969055E+05,      /* I = 48 */
(PID.TID 0000.0001)                 3.012190981969055E+05,      /* I = 49 */
(PID.TID 0000.0001)                 3.000967749619962E+05,      /* I = 50 */
(PID.TID 0000.0001)                 2.978501920522794E+05,      /* I = 51 */
(PID.TID 0000.0001)      . . .
(PID.TID 0000.0001)                 1.835530058121492E+05,      /* I = 94 */
(PID.TID 0000.0001)                 1.563594089971120E+05,      /* I = 95 */
(PID.TID 0000.0001)                 1.202082051331828E+05,      /* I = 96 */
(PID.TID 0000.0001)                 1.202082051331828E+05,      /* I = 97 */
(PID.TID 0000.0001)                 1.563594089971120E+05,      /* I = 98 */
(PID.TID 0000.0001)                 1.835530058121492E+05,      /* I = 99 */
(PID.TID 0000.0001)      . . .
(PID.TID 0000.0001)                 2.978501920522794E+05,      /* I =142 */
(PID.TID 0000.0001)                 3.000967749619962E+05,      /* I =143 */
(PID.TID 0000.0001)                 3.012190981969055E+05,      /* I =144 */
(PID.TID 0000.0001)                 3.012190981969055E+05,      /* I =145 */
(PID.TID 0000.0001)                 3.000967749619962E+05,      /* I =146 */
(PID.TID 0000.0001)                 2.978501920522794E+05,      /* I =147 */
(PID.TID 0000.0001)      . . .
(PID.TID 0000.0001)                 1.835530058121492E+05,      /* I =190 */
(PID.TID 0000.0001)                 1.563594089971120E+05,      /* I =191 */
(PID.TID 0000.0001)                 1.202082051331828E+05       /* I =192 */
(PID.TID 0000.0001)     ;
(PID.TID 0000.0001) dxF =  /* dxF(1,:,1,:) ( units: m ) */
(PID.TID 0000.0001)                 1.202082051331828E+05,      /* J =  1 */
(PID.TID 0000.0001)                 1.572908084538706E+05,      /* J =  2 */
(PID.TID 0000.0001)                 1.840412227747703E+05,      /* J =  3 */
(PID.TID 0000.0001)                 2.048868197919576E+05,      /* J =  4 */
(PID.TID 0000.0001)                 2.220405216043041E+05,      /* J =  5 */
(PID.TID 0000.0001)                 2.365892017348392E+05,      /* J =  6 */
(PID.TID 0000.0001)                 2.491250781852558E+05,      /* J =  7 */
(PID.TID 0000.0001)                 2.599949918261881E+05,      /* J =  8 */
(PID.TID 0000.0001)                 2.694110134598581E+05,      /* J =  9 */
(PID.TID 0000.0001)                 2.775055554645015E+05,      /* J = 10 */
(PID.TID 0000.0001)                 2.843615645344775E+05,      /* J = 11 */
(PID.TID 0000.0001)                 2.900303768613599E+05,      /* J = 12 */
(PID.TID 0000.0001)                 2.945429307892709E+05,      /* J = 13 */
(PID.TID 0000.0001)                 2.979171143158405E+05,      /* J = 14 */
(PID.TID 0000.0001)                 3.001626787528886E+05,      /* J = 15 */
(PID.TID 0000.0001)     2 @  3.012844832048790E+05,             /* J = 16: 17 */
(PID.TID 0000.0001)                 3.001626787528886E+05,      /* J = 18 */
(PID.TID 0000.0001)                 2.979171143158405E+05,      /* J = 19 */
(PID.TID 0000.0001)                 2.945429307892709E+05,      /* J = 20 */
(PID.TID 0000.0001)                 2.900303768613599E+05,      /* J = 21 */
(PID.TID 0000.0001)                 2.843615645344775E+05,      /* J = 22 */
(PID.TID 0000.0001)                 2.775055554645015E+05,      /* J = 23 */
(PID.TID 0000.0001)                 2.694110134598581E+05,      /* J = 24 */
(PID.TID 0000.0001)                 2.599949918261881E+05,      /* J = 25 */
(PID.TID 0000.0001)                 2.491250781852558E+05,      /* J = 26 */
(PID.TID 0000.0001)                 2.365892017348392E+05,      /* J = 27 */
(PID.TID 0000.0001)                 2.220405216043041E+05,      /* J = 28 */
(PID.TID 0000.0001)                 2.048868197919576E+05,      /* J = 29 */
(PID.TID 0000.0001)                 1.840412227747703E+05,      /* J = 30 */
(PID.TID 0000.0001)                 1.572908084538706E+05,      /* J = 31 */
(PID.TID 0000.0001)                 1.202082051331828E+05       /* J = 32 */
(PID.TID 0000.0001)     ;
(PID.TID 0000.0001) dyF =  /* dyF(:,1,:,1) ( units: m ) */
(PID.TID 0000.0001)                 1.202082051331828E+05,      /* I =  1 */
(PID.TID 0000.0001)                 1.572908084538706E+05,      /* I =  2 */
(PID.TID 0000.0001)                 1.840412227747703E+05,      /* I =  3 */
(PID.TID 0000.0001)      . . .
(PID.TID 0000.0001)                 2.979171143158405E+05,      /* I = 46 */
(PID.TID 0000.0001)                 3.001626787528886E+05,      /* I = 47 */
(PID.TID 0000.0001)                 3.012844832048790E+05,      /* I = 48 */
(PID.TID 0000.0001)                 3.012844832048790E+05,      /* I = 49 */
(PID.TID 0000.0001)                 3.001626787528886E+05,      /* I = 50 */
(PID.TID 0000.0001)                 2.979171143158405E+05,      /* I = 51 */
(PID.TID 0000.0001)      . . .
(PID.TID 0000.0001)                 1.840412227747703E+05,      /* I = 94 */
(PID.TID 0000.0001)                 1.572908084538706E+05,      /* I = 95 */
(PID.TID 0000.0001)                 1.202082051331828E+05,      /* I = 96 */
(PID.TID 0000.0001)                 1.202082051331828E+05,      /* I = 97 */
(PID.TID 0000.0001)                 1.572908084538706E+05,      /* I = 98 */
(PID.TID 0000.0001)                 1.840412227747703E+05,      /* I = 99 */
(PID.TID 0000.0001)      . . .
(PID.TID 0000.0001)                 2.979171143158405E+05,      /* I =142 */
(PID.TID 0000.0001)                 3.001626787528886E+05,      /* I =143 */
(PID.TID 0000.0001)                 3.012844832048790E+05,      /* I =144 */
(PID.TID 0000.0001)                 3.012844832048790E+05,      /* I =145 */
(PID.TID 0000.0001)                 3.001626787528886E+05,      /* I =146 */
(PID.TID 0000.0001)                 2.979171143158405E+05,      /* I =147 */
(PID.TID 0000.0001)      . . .
(PID.TID 0000.0001)                 1.840412227747703E+05,      /* I =190 */
(PID.TID 0000.0001)                 1.572908084538706E+05,      /* I =191 */
(PID.TID 0000.0001)                 1.202082051331828E+05       /* I =192 */
(PID.TID 0000.0001)     ;
(PID.TID 0000.0001) dyF =  /* dyF(1,:,1,:) ( units: m ) */
(PID.TID 0000.0001)                 1.202082051331828E+05,      /* J =  1 */
(PID.TID 0000.0001)                 1.563594089971120E+05,      /* J =  2 */
(PID.TID 0000.0001)                 1.835530058121492E+05,      /* J =  3 */
(PID.TID 0000.0001)                 2.045883481718707E+05,      /* J =  4 */
(PID.TID 0000.0001)                 2.218350349844185E+05,      /* J =  5 */
(PID.TID 0000.0001)                 2.364352994647058E+05,      /* J =  6 */
(PID.TID 0000.0001)                 2.490022710862746E+05,      /* J =  7 */
(PID.TID 0000.0001)                 2.598919724358304E+05,      /* J =  8 */
(PID.TID 0000.0001)                 2.693210245495156E+05,      /* J =  9 */
(PID.TID 0000.0001)                 2.774243179696503E+05,      /* J = 10 */
(PID.TID 0000.0001)                 2.842862532064524E+05,      /* J = 11 */
(PID.TID 0000.0001)                 2.899590699694043E+05,      /* J = 12 */
(PID.TID 0000.0001)                 2.944742915095688E+05,      /* J = 13 */
(PID.TID 0000.0001)                 2.978501920522794E+05,      /* J = 14 */
(PID.TID 0000.0001)                 3.000967749619962E+05,      /* J = 15 */
(PID.TID 0000.0001)     2 @  3.012190981969055E+05,             /* J = 16: 17 */
(PID.TID 0000.0001)                 3.000967749619962E+05,      /* J = 18 */
(PID.TID 0000.0001)                 2.978501920522794E+05,      /* J = 19 */
(PID.TID 0000.0001)                 2.944742915095688E+05,      /* J = 20 */
(PID.TID 0000.0001)                 2.899590699694043E+05,      /* J = 21 */
(PID.TID 0000.0001)                 2.842862532064524E+05,      /* J = 22 */
(PID.TID 0000.0001)                 2.774243179696503E+05,      /* J = 23 */
(PID.TID 0000.0001)                 2.693210245495156E+05,      /* J = 24 */
(PID.TID 0000.0001)                 2.598919724358304E+05,      /* J = 25 */
(PID.TID 0000.0001)                 2.490022710862746E+05,      /* J = 26 */
(PID.TID 0000.0001)                 2.364352994647058E+05,      /* J = 27 */
(PID.TID 0000.0001)                 2.218350349844185E+05,      /* J = 28 */
(PID.TID 0000.0001)                 2.045883481718707E+05,      /* J = 29 */
(PID.TID 0000.0001)                 1.835530058121492E+05,      /* J = 30 */
(PID.TID 0000.0001)                 1.563594089971120E+05,      /* J = 31 */
(PID.TID 0000.0001)                 1.202082051331828E+05       /* J = 32 */
(PID.TID 0000.0001)     ;
(PID.TID 0000.0001) dxG =  /* dxG(:,1,:,1) ( units: m ) */
(PID.TID 0000.0001)                 1.009837800879055E+05,      /* I =  1 */
(PID.TID 0000.0001)                 1.534505834330338E+05,      /* I =  2 */
(PID.TID 0000.0001)                 1.823321598773926E+05,      /* I =  3 */
(PID.TID 0000.0001)      . . .
(PID.TID 0000.0001)                 2.977867909042096E+05,      /* I = 46 */
(PID.TID 0000.0001)                 3.000380090330854E+05,      /* I = 47 */
(PID.TID 0000.0001)                 3.011625828699101E+05,      /* I = 48 */
(PID.TID 0000.0001)                 3.011625828699101E+05,      /* I = 49 */
(PID.TID 0000.0001)                 3.000380090330854E+05,      /* I = 50 */
(PID.TID 0000.0001)                 2.977867909042096E+05,      /* I = 51 */
(PID.TID 0000.0001)      . . .
(PID.TID 0000.0001)                 1.823321598773926E+05,      /* I = 94 */
(PID.TID 0000.0001)                 1.534505834330338E+05,      /* I = 95 */
(PID.TID 0000.0001)                 1.009837800879055E+05,      /* I = 96 */
(PID.TID 0000.0001)                 1.009837800879055E+05,      /* I = 97 */
(PID.TID 0000.0001)                 1.534505834330338E+05,      /* I = 98 */
(PID.TID 0000.0001)                 1.823321598773926E+05,      /* I = 99 */
(PID.TID 0000.0001)      . . .
(PID.TID 0000.0001)                 2.977867909042096E+05,      /* I =142 */
(PID.TID 0000.0001)                 3.000380090330854E+05,      /* I =143 */
(PID.TID 0000.0001)                 3.011625828699101E+05,      /* I =144 */
(PID.TID 0000.0001)                 3.011625828699101E+05,      /* I =145 */
(PID.TID 0000.0001)                 3.000380090330854E+05,      /* I =146 */
(PID.TID 0000.0001)                 2.977867909042096E+05,      /* I =147 */
(PID.TID 0000.0001)      . . .
(PID.TID 0000.0001)                 1.823321598773926E+05,      /* I =190 */
(PID.TID 0000.0001)                 1.534505834330338E+05,      /* I =191 */
(PID.TID 0000.0001)                 1.009837800879055E+05       /* I =192 */
(PID.TID 0000.0001)     ;
(PID.TID 0000.0001) dxG =  /* dxG(1,:,1,:) ( units: m ) */
(PID.TID 0000.0001)                 1.009837800879055E+05,      /* J =  1 */
(PID.TID 0000.0001)                 1.403701524205398E+05,      /* J =  2 */
(PID.TID 0000.0001)                 1.716197227386011E+05,      /* J =  3 */
(PID.TID 0000.0001)                 1.950254041626018E+05,      /* J =  4 */
(PID.TID 0000.0001)                 2.138410773065497E+05,      /* J =  5 */
(PID.TID 0000.0001)                 2.295958105911512E+05,      /* J =  6 */
(PID.TID 0000.0001)                 2.430829951739083E+05,      /* J =  7 */
(PID.TID 0000.0001)                 2.547526806712889E+05,      /* J =  8 */
(PID.TID 0000.0001)                 2.648750305193301E+05,      /* J =  9 */
(PID.TID 0000.0001)                 2.736173771018112E+05,      /* J = 10 */
(PID.TID 0000.0001)                 2.810845823202647E+05,      /* J = 11 */
(PID.TID 0000.0001)                 2.873420591008078E+05,      /* J = 12 */
(PID.TID 0000.0001)                 2.924298293668651E+05,      /* J = 13 */
(PID.TID 0000.0001)                 2.963715635865306E+05,      /* J = 14 */
(PID.TID 0000.0001)                 2.991805843171258E+05,      /* J = 15 */
(PID.TID 0000.0001)                 3.008638765647886E+05,      /* J = 16 */
(PID.TID 0000.0001)                 3.014246674484008E+05,      /* J = 17 */
(PID.TID 0000.0001)                 3.008638765647886E+05,      /* J = 18 */
(PID.TID 0000.0001)                 2.991805843171258E+05,      /* J = 19 */
(PID.TID 0000.0001)                 2.963715635865306E+05,      /* J = 20 */
(PID.TID 0000.0001)                 2.924298293668651E+05,      /* J = 21 */
(PID.TID 0000.0001)                 2.873420591008078E+05,      /* J = 22 */
(PID.TID 0000.0001)                 2.810845823202647E+05,      /* J = 23 */
(PID.TID 0000.0001)                 2.736173771018112E+05,      /* J = 24 */
(PID.TID 0000.0001)                 2.648750305193301E+05,      /* J = 25 */
(PID.TID 0000.0001)                 2.547526806712889E+05,      /* J = 26 */
(PID.TID 0000.0001)                 2.430829951739083E+05,      /* J = 27 */
(PID.TID 0000.0001)                 2.295958105911512E+05,      /* J = 28 */
(PID.TID 0000.0001)                 2.138410773065497E+05,      /* J = 29 */
(PID.TID 0000.0001)                 1.950254041626018E+05,      /* J = 30 */
(PID.TID 0000.0001)                 1.716197227386011E+05,      /* J = 31 */
(PID.TID 0000.0001)                 1.403701524205398E+05       /* J = 32 */
(PID.TID 0000.0001)     ;
(PID.TID 0000.0001) dyG =  /* dyG(:,1,:,1) ( units: m ) */
(PID.TID 0000.0001)                 1.009837800879055E+05,      /* I =  1 */
(PID.TID 0000.0001)                 1.403701524205398E+05,      /* I =  2 */
(PID.TID 0000.0001)                 1.716197227386011E+05,      /* I =  3 */
(PID.TID 0000.0001)      . . .
(PID.TID 0000.0001)                 2.963715635865306E+05,      /* I = 46 */
(PID.TID 0000.0001)                 2.991805843171258E+05,      /* I = 47 */
(PID.TID 0000.0001)                 3.008638765647886E+05,      /* I = 48 */
(PID.TID 0000.0001)                 3.014246674484008E+05,      /* I = 49 */
(PID.TID 0000.0001)                 3.008638765647886E+05,      /* I = 50 */
(PID.TID 0000.0001)                 2.991805843171258E+05,      /* I = 51 */
(PID.TID 0000.0001)      . . .
(PID.TID 0000.0001)                 1.950254041626018E+05,      /* I = 94 */
(PID.TID 0000.0001)                 1.716197227386011E+05,      /* I = 95 */
(PID.TID 0000.0001)                 1.403701524205398E+05,      /* I = 96 */
(PID.TID 0000.0001)                 1.009837800879055E+05,      /* I = 97 */
(PID.TID 0000.0001)                 1.403701524205398E+05,      /* I = 98 */
(PID.TID 0000.0001)                 1.716197227386011E+05,      /* I = 99 */
(PID.TID 0000.0001)      . . .
(PID.TID 0000.0001)                 2.963715635865306E+05,      /* I =142 */
(PID.TID 0000.0001)                 2.991805843171258E+05,      /* I =143 */
(PID.TID 0000.0001)                 3.008638765647886E+05,      /* I =144 */
(PID.TID 0000.0001)                 3.014246674484008E+05,      /* I =145 */
(PID.TID 0000.0001)                 3.008638765647886E+05,      /* I =146 */
(PID.TID 0000.0001)                 2.991805843171258E+05,      /* I =147 */
(PID.TID 0000.0001)      . . .
(PID.TID 0000.0001)                 1.950254041626018E+05,      /* I =190 */
(PID.TID 0000.0001)                 1.716197227386011E+05,      /* I =191 */
(PID.TID 0000.0001)                 1.403701524205398E+05       /* I =192 */
(PID.TID 0000.0001)     ;
(PID.TID 0000.0001) dyG =  /* dyG(1,:,1,:) ( units: m ) */
(PID.TID 0000.0001)                 1.009837800879055E+05,      /* J =  1 */
(PID.TID 0000.0001)                 1.534505834330338E+05,      /* J =  2 */
(PID.TID 0000.0001)                 1.823321598773926E+05,      /* J =  3 */
(PID.TID 0000.0001)                 2.038999045536999E+05,      /* J =  4 */
(PID.TID 0000.0001)                 2.213884732245467E+05,      /* J =  5 */
(PID.TID 0000.0001)                 2.361211699596122E+05,      /* J =  6 */
(PID.TID 0000.0001)                 2.487693460283865E+05,      /* J =  7 */
(PID.TID 0000.0001)                 2.597126963772147E+05,      /* J =  8 */
(PID.TID 0000.0001)                 2.691790288994575E+05,      /* J =  9 */
(PID.TID 0000.0001)                 2.773091043277394E+05,      /* J = 10 */
(PID.TID 0000.0001)                 2.841906470085516E+05,      /* J = 11 */
(PID.TID 0000.0001)                 2.898778860929753E+05,      /* J = 12 */
(PID.TID 0000.0001)                 2.944035815526416E+05,      /* J = 13 */
(PID.TID 0000.0001)                 2.977867909042096E+05,      /* J = 14 */
(PID.TID 0000.0001)                 3.000380090330854E+05,      /* J = 15 */
(PID.TID 0000.0001)     2 @  3.011625828699101E+05,             /* J = 16: 17 */
(PID.TID 0000.0001)                 3.000380090330854E+05,      /* J = 18 */
(PID.TID 0000.0001)                 2.977867909042096E+05,      /* J = 19 */
(PID.TID 0000.0001)                 2.944035815526416E+05,      /* J = 20 */
(PID.TID 0000.0001)                 2.898778860929753E+05,      /* J = 21 */
(PID.TID 0000.0001)                 2.841906470085516E+05,      /* J = 22 */
(PID.TID 0000.0001)                 2.773091043277394E+05,      /* J = 23 */
(PID.TID 0000.0001)                 2.691790288994575E+05,      /* J = 24 */
(PID.TID 0000.0001)                 2.597126963772147E+05,      /* J = 25 */
(PID.TID 0000.0001)                 2.487693460283865E+05,      /* J = 26 */
(PID.TID 0000.0001)                 2.361211699596122E+05,      /* J = 27 */
(PID.TID 0000.0001)                 2.213884732245467E+05,      /* J = 28 */
(PID.TID 0000.0001)                 2.038999045536999E+05,      /* J = 29 */
(PID.TID 0000.0001)                 1.823321598773926E+05,      /* J = 30 */
(PID.TID 0000.0001)                 1.534505834330338E+05,      /* J = 31 */
(PID.TID 0000.0001)                 1.009837800879055E+05       /* J = 32 */
(PID.TID 0000.0001)     ;
(PID.TID 0000.0001) dxC =  /* dxC(:,1,:,1) ( units: m ) */
(PID.TID 0000.0001)                 1.135373000692312E+05,      /* I =  1 */
(PID.TID 0000.0001)                 1.391343389937106E+05,      /* I =  2 */
(PID.TID 0000.0001)                 1.709574999026266E+05,      /* I =  3 */
(PID.TID 0000.0001)      . . .
(PID.TID 0000.0001)                 2.963038832565530E+05,      /* I = 46 */
(PID.TID 0000.0001)                 2.991142470004740E+05,      /* I = 47 */
(PID.TID 0000.0001)                 3.007982711627968E+05,      /* I = 48 */
(PID.TID 0000.0001)                 3.013593857228136E+05,      /* I = 49 */
(PID.TID 0000.0001)                 3.007982711627968E+05,      /* I = 50 */
(PID.TID 0000.0001)                 2.991142470004740E+05,      /* I = 51 */
(PID.TID 0000.0001)      . . .
(PID.TID 0000.0001)                 1.946503699269892E+05,      /* I = 94 */
(PID.TID 0000.0001)                 1.709574999026266E+05,      /* I = 95 */
(PID.TID 0000.0001)                 1.391343389937106E+05,      /* I = 96 */
(PID.TID 0000.0001)                 1.135373000692312E+05,      /* I = 97 */
(PID.TID 0000.0001)                 1.391343389937106E+05,      /* I = 98 */
(PID.TID 0000.0001)                 1.709574999026266E+05,      /* I = 99 */
(PID.TID 0000.0001)      . . .
(PID.TID 0000.0001)                 2.963038832565530E+05,      /* I =142 */
(PID.TID 0000.0001)                 2.991142470004740E+05,      /* I =143 */
(PID.TID 0000.0001)                 3.007982711627968E+05,      /* I =144 */
(PID.TID 0000.0001)                 3.013593857228136E+05,      /* I =145 */
(PID.TID 0000.0001)                 3.007982711627968E+05,      /* I =146 */
(PID.TID 0000.0001)                 2.991142470004740E+05,      /* I =147 */
(PID.TID 0000.0001)      . . .
(PID.TID 0000.0001)                 1.946503699269892E+05,      /* I =190 */
(PID.TID 0000.0001)                 1.709574999026266E+05,      /* I =191 */
(PID.TID 0000.0001)                 1.391343389937106E+05       /* I =192 */
(PID.TID 0000.0001)     ;
(PID.TID 0000.0001) dxC =  /* dxC(1,:,1,:) ( units: m ) */
(PID.TID 0000.0001)                 1.135373000692312E+05,      /* J =  1 */
(PID.TID 0000.0001)                 1.549545757850771E+05,      /* J =  2 */
(PID.TID 0000.0001)                 1.829777599966776E+05,      /* J =  3 */
(PID.TID 0000.0001)                 2.042717761866506E+05,      /* J =  4 */
(PID.TID 0000.0001)                 2.216367828252819E+05,      /* J =  5 */
(PID.TID 0000.0001)                 2.363029564123586E+05,      /* J =  6 */
(PID.TID 0000.0001)                 2.489113743322025E+05,      /* J =  7 */
(PID.TID 0000.0001)                 2.598293319150326E+05,      /* J =  8 */
(PID.TID 0000.0001)                 2.692787333338535E+05,      /* J =  9 */
(PID.TID 0000.0001)                 2.773972106720365E+05,      /* J = 10 */
(PID.TID 0000.0001)                 2.842706922224557E+05,      /* J = 11 */
(PID.TID 0000.0001)                 2.899523122489403E+05,      /* J = 12 */
(PID.TID 0000.0001)                 2.944741346384699E+05,      /* J = 13 */
(PID.TID 0000.0001)                 2.978547649292580E+05,      /* J = 14 */
(PID.TID 0000.0001)                 3.001044073506459E+05,      /* J = 15 */
(PID.TID 0000.0001)     2 @  3.012281885409289E+05,             /* J = 16: 17 */
(PID.TID 0000.0001)                 3.001044073506459E+05,      /* J = 18 */
(PID.TID 0000.0001)                 2.978547649292580E+05,      /* J = 19 */
(PID.TID 0000.0001)                 2.944741346384699E+05,      /* J = 20 */
(PID.TID 0000.0001)                 2.899523122489403E+05,      /* J = 21 */
(PID.TID 0000.0001)                 2.842706922224557E+05,      /* J = 22 */
(PID.TID 0000.0001)                 2.773972106720365E+05,      /* J = 23 */
(PID.TID 0000.0001)                 2.692787333338535E+05,      /* J = 24 */
(PID.TID 0000.0001)                 2.598293319150326E+05,      /* J = 25 */
(PID.TID 0000.0001)                 2.489113743322025E+05,      /* J = 26 */
(PID.TID 0000.0001)                 2.363029564123586E+05,      /* J = 27 */
(PID.TID 0000.0001)                 2.216367828252819E+05,      /* J = 28 */
(PID.TID 0000.0001)                 2.042717761866506E+05,      /* J = 29 */
(PID.TID 0000.0001)                 1.829777599966776E+05,      /* J = 30 */
(PID.TID 0000.0001)                 1.549545757850771E+05,      /* J = 31 */
(PID.TID 0000.0001)                 1.135373000692312E+05       /* J = 32 */
(PID.TID 0000.0001)     ;
(PID.TID 0000.0001) dyC =  /* dyC(:,1,:,1) ( units: m ) */
(PID.TID 0000.0001)                 1.135373000692312E+05,      /* I =  1 */
(PID.TID 0000.0001)                 1.549545757850771E+05,      /* I =  2 */
(PID.TID 0000.0001)                 1.829777599966776E+05,      /* I =  3 */
(PID.TID 0000.0001)      . . .
(PID.TID 0000.0001)                 2.978547649292580E+05,      /* I = 46 */
(PID.TID 0000.0001)                 3.001044073506459E+05,      /* I = 47 */
(PID.TID 0000.0001)                 3.012281885409289E+05,      /* I = 48 */
(PID.TID 0000.0001)                 3.012281885409289E+05,      /* I = 49 */
(PID.TID 0000.0001)                 3.001044073506459E+05,      /* I = 50 */
(PID.TID 0000.0001)                 2.978547649292580E+05,      /* I = 51 */
(PID.TID 0000.0001)      . . .
(PID.TID 0000.0001)                 1.829777599966776E+05,      /* I = 94 */
(PID.TID 0000.0001)                 1.549545757850771E+05,      /* I = 95 */
(PID.TID 0000.0001)                 1.135373000692312E+05,      /* I = 96 */
(PID.TID 0000.0001)                 1.135373000692312E+05,      /* I = 97 */
(PID.TID 0000.0001)                 1.549545757850771E+05,      /* I = 98 */
(PID.TID 0000.0001)                 1.829777599966776E+05,      /* I = 99 */
(PID.TID 0000.0001)      . . .
(PID.TID 0000.0001)                 2.978547649292580E+05,      /* I =142 */
(PID.TID 0000.0001)                 3.001044073506459E+05,      /* I =143 */
(PID.TID 0000.0001)                 3.012281885409289E+05,      /* I =144 */
(PID.TID 0000.0001)                 3.012281885409289E+05,      /* I =145 */
(PID.TID 0000.0001)                 3.001044073506459E+05,      /* I =146 */
(PID.TID 0000.0001)                 2.978547649292580E+05,      /* I =147 */
(PID.TID 0000.0001)      . . .
(PID.TID 0000.0001)                 1.829777599966776E+05,      /* I =190 */
(PID.TID 0000.0001)                 1.549545757850771E+05,      /* I =191 */
(PID.TID 0000.0001)                 1.135373000692312E+05       /* I =192 */
(PID.TID 0000.0001)     ;
(PID.TID 0000.0001) dyC =  /* dyC(1,:,1,:) ( units: m ) */
(PID.TID 0000.0001)                 1.135373000692312E+05,      /* J =  1 */
(PID.TID 0000.0001)                 1.391343389937106E+05,      /* J =  2 */
(PID.TID 0000.0001)                 1.709574999026266E+05,      /* J =  3 */
(PID.TID 0000.0001)                 1.946503699269892E+05,      /* J =  4 */
(PID.TID 0000.0001)                 2.135964483342134E+05,      /* J =  5 */
(PID.TID 0000.0001)                 2.294195678257306E+05,      /* J =  6 */
(PID.TID 0000.0001)                 2.429464709770498E+05,      /* J =  7 */
(PID.TID 0000.0001)                 2.546408290696998E+05,      /* J =  8 */
(PID.TID 0000.0001)                 2.647791839299727E+05,      /* J =  9 */
(PID.TID 0000.0001)                 2.735321911346108E+05,      /* J = 10 */
(PID.TID 0000.0001)                 2.810065951609633E+05,      /* J = 11 */
(PID.TID 0000.0001)                 2.872689479506990E+05,      /* J = 12 */
(PID.TID 0000.0001)                 2.923599955312932E+05,      /* J = 13 */
(PID.TID 0000.0001)                 2.963038832565530E+05,      /* J = 14 */
(PID.TID 0000.0001)                 2.991142470004740E+05,      /* J = 15 */
(PID.TID 0000.0001)                 3.007982711627968E+05,      /* J = 16 */
(PID.TID 0000.0001)                 3.013593857228136E+05,      /* J = 17 */
(PID.TID 0000.0001)                 3.007982711627968E+05,      /* J = 18 */
(PID.TID 0000.0001)                 2.991142470004740E+05,      /* J = 19 */
(PID.TID 0000.0001)                 2.963038832565530E+05,      /* J = 20 */
(PID.TID 0000.0001)                 2.923599955312932E+05,      /* J = 21 */
(PID.TID 0000.0001)                 2.872689479506990E+05,      /* J = 22 */
(PID.TID 0000.0001)                 2.810065951609633E+05,      /* J = 23 */
(PID.TID 0000.0001)                 2.735321911346108E+05,      /* J = 24 */
(PID.TID 0000.0001)                 2.647791839299727E+05,      /* J = 25 */
(PID.TID 0000.0001)                 2.546408290696998E+05,      /* J = 26 */
(PID.TID 0000.0001)                 2.429464709770498E+05,      /* J = 27 */
(PID.TID 0000.0001)                 2.294195678257306E+05,      /* J = 28 */
(PID.TID 0000.0001)                 2.135964483342134E+05,      /* J = 29 */
(PID.TID 0000.0001)                 1.946503699269892E+05,      /* J = 30 */
(PID.TID 0000.0001)                 1.709574999026266E+05,      /* J = 31 */
(PID.TID 0000.0001)                 1.391343389937106E+05       /* J = 32 */
(PID.TID 0000.0001)     ;
(PID.TID 0000.0001) dxV =  /* dxV(:,1,:,1) ( units: m ) */
(PID.TID 0000.0001)                 8.015229982413632E+04,      /* I =  1 */
(PID.TID 0000.0001)                 1.333130744933864E+05,      /* I =  2 */
(PID.TID 0000.0001)                 1.691744868129062E+05,      /* I =  3 */
(PID.TID 0000.0001)      . . .
(PID.TID 0000.0001)                 2.962371870847826E+05,      /* I = 46 */
(PID.TID 0000.0001)                 2.990534755671296E+05,      /* I = 47 */
(PID.TID 0000.0001)                 3.007409169495504E+05,      /* I = 48 */
(PID.TID 0000.0001)                 3.013031486919771E+05,      /* I = 49 */
(PID.TID 0000.0001)                 3.007409169495504E+05,      /* I = 50 */
(PID.TID 0000.0001)                 2.990534755671296E+05,      /* I = 51 */
(PID.TID 0000.0001)      . . .
(PID.TID 0000.0001)                 1.937548202849060E+05,      /* I = 94 */
(PID.TID 0000.0001)                 1.691744868129062E+05,      /* I = 95 */
(PID.TID 0000.0001)                 1.333130744933864E+05,      /* I = 96 */
(PID.TID 0000.0001)                 8.015229982413632E+04,      /* I = 97 */
(PID.TID 0000.0001)                 1.333130744933864E+05,      /* I = 98 */
(PID.TID 0000.0001)                 1.691744868129062E+05,      /* I = 99 */
(PID.TID 0000.0001)      . . .
(PID.TID 0000.0001)                 2.962371870847826E+05,      /* I =142 */
(PID.TID 0000.0001)                 2.990534755671296E+05,      /* I =143 */
(PID.TID 0000.0001)                 3.007409169495504E+05,      /* I =144 */
(PID.TID 0000.0001)                 3.013031486919771E+05,      /* I =145 */
(PID.TID 0000.0001)                 3.007409169495504E+05,      /* I =146 */
(PID.TID 0000.0001)                 2.990534755671296E+05,      /* I =147 */
(PID.TID 0000.0001)      . . .
(PID.TID 0000.0001)                 1.937548202849060E+05,      /* I =190 */
(PID.TID 0000.0001)                 1.691744868129062E+05,      /* I =191 */
(PID.TID 0000.0001)                 1.333130744933864E+05       /* I =192 */
(PID.TID 0000.0001)     ;
(PID.TID 0000.0001) dxV =  /* dxV(1,:,1,:) ( units: m ) */
(PID.TID 0000.0001)                 8.015229982413632E+04,      /* J =  1 */
(PID.TID 0000.0001)                 1.362652340208229E+05,      /* J =  2 */
(PID.TID 0000.0001)                 1.701080315742101E+05,      /* J =  3 */
(PID.TID 0000.0001)                 1.942331448101592E+05,      /* J =  4 */
(PID.TID 0000.0001)                 2.133486626971531E+05,      /* J =  5 */
(PID.TID 0000.0001)                 2.292584591272880E+05,      /* J =  6 */
(PID.TID 0000.0001)                 2.428369969078989E+05,      /* J =  7 */
(PID.TID 0000.0001)                 2.545652950875683E+05,      /* J =  8 */
(PID.TID 0000.0001)                 2.647274964828301E+05,      /* J =  9 */
(PID.TID 0000.0001)                 2.734980225206389E+05,      /* J = 10 */
(PID.TID 0000.0001)                 2.809856491525217E+05,      /* J = 11 */
(PID.TID 0000.0001)                 2.872580915202295E+05,      /* J = 12 */
(PID.TID 0000.0001)                 2.923567890694162E+05,      /* J = 13 */
(PID.TID 0000.0001)                 2.963063101754721E+05,      /* J = 14 */
(PID.TID 0000.0001)                 2.991205495886625E+05,      /* J = 15 */
(PID.TID 0000.0001)                 3.008068453676764E+05,      /* J = 16 */
(PID.TID 0000.0001)                 3.013686170436881E+05,      /* J = 17 */
(PID.TID 0000.0001)                 3.008068453676764E+05,      /* J = 18 */
(PID.TID 0000.0001)                 2.991205495886625E+05,      /* J = 19 */
(PID.TID 0000.0001)                 2.963063101754721E+05,      /* J = 20 */
(PID.TID 0000.0001)                 2.923567890694162E+05,      /* J = 21 */
(PID.TID 0000.0001)                 2.872580915202295E+05,      /* J = 22 */
(PID.TID 0000.0001)                 2.809856491525217E+05,      /* J = 23 */
(PID.TID 0000.0001)                 2.734980225206389E+05,      /* J = 24 */
(PID.TID 0000.0001)                 2.647274964828301E+05,      /* J = 25 */
(PID.TID 0000.0001)                 2.545652950875683E+05,      /* J = 26 */
(PID.TID 0000.0001)                 2.428369969078989E+05,      /* J = 27 */
(PID.TID 0000.0001)                 2.292584591272880E+05,      /* J = 28 */
(PID.TID 0000.0001)                 2.133486626971531E+05,      /* J = 29 */
(PID.TID 0000.0001)                 1.942331448101592E+05,      /* J = 30 */
(PID.TID 0000.0001)                 1.701080315742101E+05,      /* J = 31 */
(PID.TID 0000.0001)                 1.362652340208229E+05       /* J = 32 */
(PID.TID 0000.0001)     ;
(PID.TID 0000.0001) dyU =  /* dyU(:,1,:,1) ( units: m ) */
(PID.TID 0000.0001)                 8.015229982413632E+04,      /* I =  1 */
(PID.TID 0000.0001)                 1.362652340208229E+05,      /* I =  2 */
(PID.TID 0000.0001)                 1.701080315742101E+05,      /* I =  3 */
(PID.TID 0000.0001)      . . .
(PID.TID 0000.0001)                 2.963063101754721E+05,      /* I = 46 */
(PID.TID 0000.0001)                 2.991205495886625E+05,      /* I = 47 */
(PID.TID 0000.0001)                 3.008068453676764E+05,      /* I = 48 */
(PID.TID 0000.0001)                 3.013686170436881E+05,      /* I = 49 */
(PID.TID 0000.0001)                 3.008068453676764E+05,      /* I = 50 */
(PID.TID 0000.0001)                 2.991205495886625E+05,      /* I = 51 */
(PID.TID 0000.0001)      . . .
(PID.TID 0000.0001)                 1.942331448101592E+05,      /* I = 94 */
(PID.TID 0000.0001)                 1.701080315742101E+05,      /* I = 95 */
(PID.TID 0000.0001)                 1.362652340208229E+05,      /* I = 96 */
(PID.TID 0000.0001)                 8.015229982413632E+04,      /* I = 97 */
(PID.TID 0000.0001)                 1.362652340208229E+05,      /* I = 98 */
(PID.TID 0000.0001)                 1.701080315742101E+05,      /* I = 99 */
(PID.TID 0000.0001)      . . .
(PID.TID 0000.0001)                 2.963063101754721E+05,      /* I =142 */
(PID.TID 0000.0001)                 2.991205495886625E+05,      /* I =143 */
(PID.TID 0000.0001)                 3.008068453676764E+05,      /* I =144 */
(PID.TID 0000.0001)                 3.013686170436881E+05,      /* I =145 */
(PID.TID 0000.0001)                 3.008068453676764E+05,      /* I =146 */
(PID.TID 0000.0001)                 2.991205495886625E+05,      /* I =147 */
(PID.TID 0000.0001)      . . .
(PID.TID 0000.0001)                 1.942331448101592E+05,      /* I =190 */
(PID.TID 0000.0001)                 1.701080315742101E+05,      /* I =191 */
(PID.TID 0000.0001)                 1.362652340208229E+05       /* I =192 */
(PID.TID 0000.0001)     ;
(PID.TID 0000.0001) dyU =  /* dyU(1,:,1,:) ( units: m ) */
(PID.TID 0000.0001)                 8.015229982413632E+04,      /* J =  1 */
(PID.TID 0000.0001)                 1.333130744933864E+05,      /* J =  2 */
(PID.TID 0000.0001)                 1.691744868129062E+05,      /* J =  3 */
(PID.TID 0000.0001)                 1.937548202849060E+05,      /* J =  4 */
(PID.TID 0000.0001)                 2.130490056267208E+05,      /* J =  5 */
(PID.TID 0000.0001)                 2.290479919481738E+05,      /* J =  6 */
(PID.TID 0000.0001)                 2.426774358027003E+05,      /* J =  7 */
(PID.TID 0000.0001)                 2.544372984215561E+05,      /* J =  8 */
(PID.TID 0000.0001)                 2.646201463834826E+05,      /* J =  9 */
(PID.TID 0000.0001)                 2.734046499619031E+05,      /* J = 10 */
(PID.TID 0000.0001)                 2.809019351693761E+05,      /* J = 11 */
(PID.TID 0000.0001)                 2.871811105274442E+05,      /* J = 12 */
(PID.TID 0000.0001)                 2.922844849381675E+05,      /* J = 13 */
(PID.TID 0000.0001)                 2.962371870847826E+05,      /* J = 14 */
(PID.TID 0000.0001)                 2.990534755671296E+05,      /* J = 15 */
(PID.TID 0000.0001)                 3.007409169495504E+05,      /* J = 16 */
(PID.TID 0000.0001)                 3.013031486919771E+05,      /* J = 17 */
(PID.TID 0000.0001)                 3.007409169495504E+05,      /* J = 18 */
(PID.TID 0000.0001)                 2.990534755671296E+05,      /* J = 19 */
(PID.TID 0000.0001)                 2.962371870847826E+05,      /* J = 20 */
(PID.TID 0000.0001)                 2.922844849381675E+05,      /* J = 21 */
(PID.TID 0000.0001)                 2.871811105274442E+05,      /* J = 22 */
(PID.TID 0000.0001)                 2.809019351693761E+05,      /* J = 23 */
(PID.TID 0000.0001)                 2.734046499619031E+05,      /* J = 24 */
(PID.TID 0000.0001)                 2.646201463834826E+05,      /* J = 25 */
(PID.TID 0000.0001)                 2.544372984215561E+05,      /* J = 26 */
(PID.TID 0000.0001)                 2.426774358027003E+05,      /* J = 27 */
(PID.TID 0000.0001)                 2.290479919481738E+05,      /* J = 28 */
(PID.TID 0000.0001)                 2.130490056267208E+05,      /* J = 29 */
(PID.TID 0000.0001)                 1.937548202849060E+05,      /* J = 30 */
(PID.TID 0000.0001)                 1.691744868129062E+05,      /* J = 31 */
(PID.TID 0000.0001)                 1.333130744933864E+05       /* J = 32 */
(PID.TID 0000.0001)     ;
(PID.TID 0000.0001) rA  =  /* rA (:,1,:,1) ( units: m^2 ) */
(PID.TID 0000.0001)                 1.549786705672200E+10,      /* I =  1 */
(PID.TID 0000.0001)                 2.487202533723944E+10,      /* I =  2 */
(PID.TID 0000.0001)                 3.392265412140352E+10,      /* I =  3 */
(PID.TID 0000.0001)      . . .
(PID.TID 0000.0001)                 8.871245486529788E+10,      /* I = 46 */
(PID.TID 0000.0001)                 9.005359372079962E+10,      /* I = 47 */
(PID.TID 0000.0001)                 9.072735712796770E+10,      /* I = 48 */
(PID.TID 0000.0001)                 9.072735712796770E+10,      /* I = 49 */
(PID.TID 0000.0001)                 9.005359372079962E+10,      /* I = 50 */
(PID.TID 0000.0001)                 8.871245486529788E+10,      /* I = 51 */
(PID.TID 0000.0001)      . . .
(PID.TID 0000.0001)                 3.392265412140352E+10,      /* I = 94 */
(PID.TID 0000.0001)                 2.487202533723944E+10,      /* I = 95 */
(PID.TID 0000.0001)                 1.549786705672200E+10,      /* I = 96 */
(PID.TID 0000.0001)                 1.549786705672200E+10,      /* I = 97 */
(PID.TID 0000.0001)                 2.487202533723944E+10,      /* I = 98 */
(PID.TID 0000.0001)                 3.392265412140352E+10,      /* I = 99 */
(PID.TID 0000.0001)      . . .
(PID.TID 0000.0001)                 8.871245486529788E+10,      /* I =142 */
(PID.TID 0000.0001)                 9.005359372079962E+10,      /* I =143 */
(PID.TID 0000.0001)                 9.072735712796770E+10,      /* I =144 */
(PID.TID 0000.0001)                 9.072735712796770E+10,      /* I =145 */
(PID.TID 0000.0001)                 9.005359372079962E+10,      /* I =146 */
(PID.TID 0000.0001)                 8.871245486529788E+10,      /* I =147 */
(PID.TID 0000.0001)      . . .
(PID.TID 0000.0001)                 3.392265412140352E+10,      /* I =190 */
(PID.TID 0000.0001)                 2.487202533723944E+10,      /* I =191 */
(PID.TID 0000.0001)                 1.549786705672200E+10       /* I =192 */
(PID.TID 0000.0001)     ;
(PID.TID 0000.0001) rA  =  /* rA (1,:,1,:) ( units: m^2 ) */
(PID.TID 0000.0001)                 1.549786705672200E+10,      /* J =  1 */
(PID.TID 0000.0001)                 2.487202533723944E+10,      /* J =  2 */
(PID.TID 0000.0001)                 3.392265412140352E+10,      /* J =  3 */
(PID.TID 0000.0001)                 4.200427377313133E+10,      /* J =  4 */
(PID.TID 0000.0001)                 4.931323764668228E+10,      /* J =  5 */
(PID.TID 0000.0001)                 5.597545074899419E+10,      /* J =  6 */
(PID.TID 0000.0001)                 6.205603937791459E+10,      /* J =  7 */
(PID.TID 0000.0001)                 6.758299971934573E+10,      /* J =  8 */
(PID.TID 0000.0001)                 7.256155653843707E+10,      /* J =  9 */
(PID.TID 0000.0001)                 7.698291833687604E+10,      /* J = 10 */
(PID.TID 0000.0001)                 8.083005486272011E+10,      /* J = 11 */
(PID.TID 0000.0001)                 8.408183191745641E+10,      /* J = 12 */
(PID.TID 0000.0001)                 8.671615787312848E+10,      /* J = 13 */
(PID.TID 0000.0001)                 8.871245486529788E+10,      /* J = 14 */
(PID.TID 0000.0001)                 9.005359372079964E+10,      /* J = 15 */
(PID.TID 0000.0001)     2 @  9.072735712796770E+10,             /* J = 16: 17 */
(PID.TID 0000.0001)                 9.005359372079964E+10,      /* J = 18 */
(PID.TID 0000.0001)                 8.871245486529788E+10,      /* J = 19 */
(PID.TID 0000.0001)                 8.671615787312848E+10,      /* J = 20 */
(PID.TID 0000.0001)                 8.408183191745641E+10,      /* J = 21 */
(PID.TID 0000.0001)                 8.083005486272011E+10,      /* J = 22 */
(PID.TID 0000.0001)                 7.698291833687604E+10,      /* J = 23 */
(PID.TID 0000.0001)                 7.256155653843707E+10,      /* J = 24 */
(PID.TID 0000.0001)                 6.758299971934573E+10,      /* J = 25 */
(PID.TID 0000.0001)                 6.205603937791459E+10,      /* J = 26 */
(PID.TID 0000.0001)                 5.597545074899419E+10,      /* J = 27 */
(PID.TID 0000.0001)                 4.931323764668228E+10,      /* J = 28 */
(PID.TID 0000.0001)                 4.200427377313133E+10,      /* J = 29 */
(PID.TID 0000.0001)                 3.392265412140352E+10,      /* J = 30 */
(PID.TID 0000.0001)                 2.487202533723944E+10,      /* J = 31 */
(PID.TID 0000.0001)                 1.549786705672200E+10       /* J = 32 */
(PID.TID 0000.0001)     ;
(PID.TID 0000.0001) rAw =  /* rAw(:,1,:,1) ( units: m^2 ) */
(PID.TID 0000.0001)                 1.146542574196578E+10,      /* I =  1 */
(PID.TID 0000.0001)                 1.953030837147821E+10,      /* I =  2 */
(PID.TID 0000.0001)                 2.933967873337320E+10,      /* I =  3 */
(PID.TID 0000.0001)      . . .
(PID.TID 0000.0001)                 8.781604517750543E+10,      /* I = 46 */
(PID.TID 0000.0001)                 8.948917519517891E+10,      /* I = 47 */
(PID.TID 0000.0001)                 9.049933392602551E+10,      /* I = 48 */
(PID.TID 0000.0001)                 9.083715262395341E+10,      /* I = 49 */
(PID.TID 0000.0001)                 9.049933392602551E+10,      /* I = 50 */
(PID.TID 0000.0001)                 8.948917519517891E+10,      /* I = 51 */
(PID.TID 0000.0001)      . . .
(PID.TID 0000.0001)                 3.796176706541101E+10,      /* I = 94 */
(PID.TID 0000.0001)                 2.933967873337320E+10,      /* I = 95 */
(PID.TID 0000.0001)                 1.953030837147821E+10,      /* I = 96 */
(PID.TID 0000.0001)                 1.146542574196578E+10,      /* I = 97 */
(PID.TID 0000.0001)                 1.953030837147821E+10,      /* I = 98 */
(PID.TID 0000.0001)                 2.933967873337320E+10,      /* I = 99 */
(PID.TID 0000.0001)      . . .
(PID.TID 0000.0001)                 8.781604517750543E+10,      /* I =142 */
(PID.TID 0000.0001)                 8.948917519517891E+10,      /* I =143 */
(PID.TID 0000.0001)                 9.049933392602551E+10,      /* I =144 */
(PID.TID 0000.0001)                 9.083715262395341E+10,      /* I =145 */
(PID.TID 0000.0001)                 9.049933392602551E+10,      /* I =146 */
(PID.TID 0000.0001)                 8.948917519517891E+10,      /* I =147 */
(PID.TID 0000.0001)      . . .
(PID.TID 0000.0001)                 3.796176706541101E+10,      /* I =190 */
(PID.TID 0000.0001)                 2.933967873337320E+10,      /* I =191 */
(PID.TID 0000.0001)                 1.953030837147821E+10       /* I =192 */
(PID.TID 0000.0001)     ;
(PID.TID 0000.0001) rAw =  /* rAw(1,:,1,:) ( units: m^2 ) */
(PID.TID 0000.0001)                 1.146542574196578E+10,      /* J =  1 */
(PID.TID 0000.0001)                 2.377787005983833E+10,      /* J =  2 */
(PID.TID 0000.0001)                 3.336273018972140E+10,      /* J =  3 */
(PID.TID 0000.0001)                 4.165099566747280E+10,      /* J =  4 */
(PID.TID 0000.0001)                 4.906782896008959E+10,      /* J =  5 */
(PID.TID 0000.0001)                 5.579613053300137E+10,      /* J =  6 */
(PID.TID 0000.0001)                 6.192151981164894E+10,      /* J =  7 */
(PID.TID 0000.0001)                 6.748097638954340E+10,      /* J =  8 */
(PID.TID 0000.0001)                 7.248418794208269E+10,      /* J =  9 */
(PID.TID 0000.0001)                 7.692477203447566E+10,      /* J = 10 */
(PID.TID 0000.0001)                 8.078707194826852E+10,      /* J = 11 */
(PID.TID 0000.0001)                 8.405076334249313E+10,      /* J = 12 */
(PID.TID 0000.0001)                 8.669423991218034E+10,      /* J = 13 */
(PID.TID 0000.0001)                 8.869721460381146E+10,      /* J = 14 */
(PID.TID 0000.0001)                 9.004272888354184E+10,      /* J = 15 */
(PID.TID 0000.0001)     2 @  9.071865929421040E+10,             /* J = 16: 17 */
(PID.TID 0000.0001)                 9.004272888354184E+10,      /* J = 18 */
(PID.TID 0000.0001)                 8.869721460381146E+10,      /* J = 19 */
(PID.TID 0000.0001)                 8.669423991218034E+10,      /* J = 20 */
(PID.TID 0000.0001)                 8.405076334249313E+10,      /* J = 21 */
(PID.TID 0000.0001)                 8.078707194826852E+10,      /* J = 22 */
(PID.TID 0000.0001)                 7.692477203447566E+10,      /* J = 23 */
(PID.TID 0000.0001)                 7.248418794208269E+10,      /* J = 24 */
(PID.TID 0000.0001)                 6.748097638954340E+10,      /* J = 25 */
(PID.TID 0000.0001)                 6.192151981164894E+10,      /* J = 26 */
(PID.TID 0000.0001)                 5.579613053300137E+10,      /* J = 27 */
(PID.TID 0000.0001)                 4.906782896008959E+10,      /* J = 28 */
(PID.TID 0000.0001)                 4.165099566747280E+10,      /* J = 29 */
(PID.TID 0000.0001)                 3.336273018972140E+10,      /* J = 30 */
(PID.TID 0000.0001)                 2.377787005983833E+10,      /* J = 31 */
(PID.TID 0000.0001)                 1.146542574196578E+10       /* J = 32 */
(PID.TID 0000.0001)     ;
(PID.TID 0000.0001) rAs =  /* rAs(:,1,:,1) ( units: m^2 ) */
(PID.TID 0000.0001)                 1.146542574196578E+10,      /* I =  1 */
(PID.TID 0000.0001)                 2.377787005983833E+10,      /* I =  2 */
(PID.TID 0000.0001)                 3.336273018972140E+10,      /* I =  3 */
(PID.TID 0000.0001)      . . .
(PID.TID 0000.0001)                 8.869721460381146E+10,      /* I = 46 */
(PID.TID 0000.0001)                 9.004272888354184E+10,      /* I = 47 */
(PID.TID 0000.0001)                 9.071865929421040E+10,      /* I = 48 */
(PID.TID 0000.0001)                 9.071865929421040E+10,      /* I = 49 */
(PID.TID 0000.0001)                 9.004272888354184E+10,      /* I = 50 */
(PID.TID 0000.0001)                 8.869721460381146E+10,      /* I = 51 */
(PID.TID 0000.0001)      . . .
(PID.TID 0000.0001)                 3.336273018972140E+10,      /* I = 94 */
(PID.TID 0000.0001)                 2.377787005983833E+10,      /* I = 95 */
(PID.TID 0000.0001)                 1.146542574196578E+10,      /* I = 96 */
(PID.TID 0000.0001)                 1.146542574196578E+10,      /* I = 97 */
(PID.TID 0000.0001)                 2.377787005983833E+10,      /* I = 98 */
(PID.TID 0000.0001)                 3.336273018972140E+10,      /* I = 99 */
(PID.TID 0000.0001)      . . .
(PID.TID 0000.0001)                 8.869721460381146E+10,      /* I =142 */
(PID.TID 0000.0001)                 9.004272888354184E+10,      /* I =143 */
(PID.TID 0000.0001)                 9.071865929421040E+10,      /* I =144 */
(PID.TID 0000.0001)                 9.071865929421040E+10,      /* I =145 */
(PID.TID 0000.0001)                 9.004272888354184E+10,      /* I =146 */
(PID.TID 0000.0001)                 8.869721460381146E+10,      /* I =147 */
(PID.TID 0000.0001)      . . .
(PID.TID 0000.0001)                 3.336273018972140E+10,      /* I =190 */
(PID.TID 0000.0001)                 2.377787005983833E+10,      /* I =191 */
(PID.TID 0000.0001)                 1.146542574196578E+10       /* I =192 */
(PID.TID 0000.0001)     ;
(PID.TID 0000.0001) rAs =  /* rAs(1,:,1,:) ( units: m^2 ) */
(PID.TID 0000.0001)                 1.146542574196578E+10,      /* J =  1 */
(PID.TID 0000.0001)                 1.953030837147821E+10,      /* J =  2 */
(PID.TID 0000.0001)                 2.933967873337320E+10,      /* J =  3 */
(PID.TID 0000.0001)                 3.796176706541101E+10,      /* J =  4 */
(PID.TID 0000.0001)                 4.567569462064098E+10,      /* J =  5 */
(PID.TID 0000.0001)                 5.267377164042021E+10,      /* J =  6 */
(PID.TID 0000.0001)                 5.905615583203223E+10,      /* J =  7 */
(PID.TID 0000.0001)                 6.487043381386549E+10,      /* J =  8 */
(PID.TID 0000.0001)                 7.013339442433482E+10,      /* J =  9 */
(PID.TID 0000.0001)                 7.484316069116351E+10,      /* J = 10 */
(PID.TID 0000.0001)                 7.898662143005907E+10,      /* J = 11 */
(PID.TID 0000.0001)                 8.254445101987663E+10,      /* J = 12 */
(PID.TID 0000.0001)                 8.549478360691351E+10,      /* J = 13 */
(PID.TID 0000.0001)                 8.781604517750543E+10,      /* J = 14 */
(PID.TID 0000.0001)                 8.948917519517891E+10,      /* J = 15 */
(PID.TID 0000.0001)                 9.049933392602551E+10,      /* J = 16 */
(PID.TID 0000.0001)                 9.083715262395341E+10,      /* J = 17 */
(PID.TID 0000.0001)                 9.049933392602551E+10,      /* J = 18 */
(PID.TID 0000.0001)                 8.948917519517891E+10,      /* J = 19 */
(PID.TID 0000.0001)                 8.781604517750543E+10,      /* J = 20 */
(PID.TID 0000.0001)                 8.549478360691351E+10,      /* J = 21 */
(PID.TID 0000.0001)                 8.254445101987663E+10,      /* J = 22 */
(PID.TID 0000.0001)                 7.898662143005907E+10,      /* J = 23 */
(PID.TID 0000.0001)                 7.484316069116351E+10,      /* J = 24 */
(PID.TID 0000.0001)                 7.013339442433482E+10,      /* J = 25 */
(PID.TID 0000.0001)                 6.487043381386549E+10,      /* J = 26 */
(PID.TID 0000.0001)                 5.905615583203223E+10,      /* J = 27 */
(PID.TID 0000.0001)                 5.267377164042021E+10,      /* J = 28 */
(PID.TID 0000.0001)                 4.567569462064098E+10,      /* J = 29 */
(PID.TID 0000.0001)                 3.796176706541101E+10,      /* J = 30 */
(PID.TID 0000.0001)                 2.933967873337320E+10,      /* J = 31 */
(PID.TID 0000.0001)                 1.953030837147821E+10       /* J = 32 */
(PID.TID 0000.0001)     ;
(PID.TID 0000.0001) globalArea = /* Integrated horizontal Area (m^2) */
(PID.TID 0000.0001)                 5.098642104278459E+14
(PID.TID 0000.0001)     ;
(PID.TID 0000.0001) hasWetCSCorners = /* Domain contains CS corners (True/False) */
(PID.TID 0000.0001)                   T
(PID.TID 0000.0001)     ;
(PID.TID 0000.0001) // =======================================================
(PID.TID 0000.0001) // End of Model config. summary
(PID.TID 0000.0001) // =======================================================
(PID.TID 0000.0001) 
(PID.TID 0000.0001) == Packages configuration : Check & print summary ==
(PID.TID 0000.0001) 
(PID.TID 0000.0001) ATM_PHYS_CHECK: #define ALLOW_ATM_PHYS
(PID.TID 0000.0001) atmPhys_addTendT = /* apply Atm-Phys tendency to Temperature Eq.*/
(PID.TID 0000.0001)                   T
(PID.TID 0000.0001)     ;
(PID.TID 0000.0001) atmPhys_addTendS = /* apply Atm-Phys tendency to Salinity Eq.*/
(PID.TID 0000.0001)                   T
(PID.TID 0000.0001)     ;
(PID.TID 0000.0001) atmPhys_addTendU = /* apply Atm-Phys tendency to U momentum Eq.*/
(PID.TID 0000.0001)                   T
(PID.TID 0000.0001)     ;
(PID.TID 0000.0001) atmPhys_addTendV = /* apply Atm-Phys tendency to V momentum Eq.*/
(PID.TID 0000.0001)                   T
(PID.TID 0000.0001)     ;
(PID.TID 0000.0001) atmPhys_stepSST = /* step forward SST field */
(PID.TID 0000.0001)                   F
(PID.TID 0000.0001)     ;
(PID.TID 0000.0001) atmPhys_dampUVfac = /* U,V danping coefficient (1/s) */
(PID.TID 0000.0001)    20 @  0.000000000000000E+00,             /* K =  1: 20 */
(PID.TID 0000.0001)                 1.446759259259259E-06,      /* K = 21 */
(PID.TID 0000.0001)                 2.893518518518518E-06,      /* K = 22 */
(PID.TID 0000.0001)                 5.787037037037037E-06,      /* K = 23 */
(PID.TID 0000.0001)                 1.157407407407407E-05,      /* K = 24 */
(PID.TID 0000.0001)                 2.314814814814815E-05,      /* K = 25 */
(PID.TID 0000.0001)                 4.629629629629629E-05       /* K = 26 */
(PID.TID 0000.0001)     ;
(PID.TID 0000.0001) atmPhys_SSTFile = /* SST input file */
(PID.TID 0000.0001)               'SST_APE_1.bin'
(PID.TID 0000.0001)     ;
(PID.TID 0000.0001) atmPhys_QflxFile = /* Q-flux input file */
(PID.TID 0000.0001)               ''
(PID.TID 0000.0001)     ;
(PID.TID 0000.0001) 
(PID.TID 0000.0001) GAD_CHECK: #define ALLOW_GENERIC_ADVDIFF
(PID.TID 0000.0001) // =======================================================
(PID.TID 0000.0001) // Check Model config. (CONFIG_CHECK):
(PID.TID 0000.0001) // CONFIG_CHECK : Normal End
(PID.TID 0000.0001) // =======================================================
(PID.TID 0000.0001) 
(PID.TID 0000.0001)  MDS_READ_FIELD: opening global file: ini_theta_26l.bin
(PID.TID 0000.0001)  MDS_READ_FIELD: opening global file: ini_specQ_26l.bin
(PID.TID 0000.0001) Start initial hydrostatic pressure computation
(PID.TID 0000.0001) Iteration   1, RMS-difference =  3.507436152430E+04
(PID.TID 0000.0001) Iteration   2, RMS-difference =  0.000000000000E+00
(PID.TID 0000.0001) Initial hydrostatic pressure converged.
(PID.TID 0000.0001) 
(PID.TID 0000.0001)  write diagnostics summary to file ioUnit:      6
Iter.Nb:         0 ; Time(s):  0.0000000000000E+00
------------------------------------------------------------------------
2D/3D diagnostics: Number of lists:     2
------------------------------------------------------------------------
listId=    1 ; file name: surfDiag
 nFlds, nActive,       freq     &     phase        , nLev               
   16  |   16  |6220800000.000000         0.000000 |   1
 levels:   1
 diag# | name   |   ipt  |  iMate | kLev|   count |   mate.C|           
    23 |ETAN    |      1 |      0 |   1 |      0(x 12) |
    24 |ETANSQ  |     13 |      0 |   1 |      0(x 12) |
    25 |DETADT2 |     25 |      0 |   1 |      0(x 12) |
   210 |AtPhCAPE|     37 |      0 |   1 |      0(x 12) |
   197 |AtPhCnvP|     49 |      0 |   1 |      0(x 12) |
   198 |AtPhLscP|     61 |      0 |   1 |      0(x 12) |
   206 |AtPhSens|     73 |      0 |   1 |      0(x 12) |
   207 |AtPhEvap|     85 |      0 |   1 |      0(x 12) |
   208 |AtPhTauX|     97 |      0 |   1 |      0(x 12) |
   209 |AtPhTauY|    109 |      0 |   1 |      0(x 12) |
   190 |AtPh_SST|    121 |      0 |   1 |      0(x 12) |
   199 |AtPhInSR|    133 |      0 |   1 |      0(x 12) |
   201 |AtPhOLR |    145 |      0 |   1 |      0(x 12) |
   203 |AtPhNSSR|    157 |      0 |   1 |      0(x 12) |
   204 |AtPhDSLR|    169 |      0 |   1 |      0(x 12) |
   205 |AtPhUSLR|    181 |      0 |   1 |      0(x 12) |
------------------------------------------------------------------------
listId=    2 ; file name: dynDiag
 nFlds, nActive,       freq     &     phase        , nLev               
   20  |   20  |6220800000.000000         0.000000 |  26
 levels:   1   2   3   4   5   6   7   8   9  10  11  12  13  14  15  16  17  18  19  20  21  22  23  24  25
 levels:  26
 diag# | name   |   ipt  |  iMate | kLev|   count |   mate.C|           
    29 |UVEL    |    193 |    297 |  26 |      0(x  4) |
    30 |VVEL    |    297 |    193 |  26 |      0(x  4) |
    31 |WVEL    |    401 |      0 |  26 |      0(x  4) |
    26 |THETA   |    505 |      0 |  26 |      0(x  4) |
    27 |SALT    |    609 |      0 |  26 |      0(x  4) |
    34 |UVELSQ  |    713 |    817 |  26 |      0(x  4) |
    35 |VVELSQ  |    817 |    713 |  26 |      0(x  4) |
    36 |WVELSQ  |    921 |      0 |  26 |      0(x  4) |
    32 |THETASQ |   1025 |      0 |  26 |      0(x  4) |
    33 |SALTSQ  |   1129 |      0 |  26 |      0(x  4) |
    43 |UVELMASS|   1233 |   1337 |  26 |      0(x  4) |
    44 |VVELMASS|   1337 |   1233 |  26 |      0(x  4) |
    39 |UV_VEL_C|   1441 |   1441 |  26 |      0(x  4) |
    28 |RELHUM  |   1545 |      0 |  26 |      0(x  4) |
   108 |ADVx_TH |   1649 |   1753 |  26 |      0(x  4) |
   109 |ADVy_TH |   1753 |   1649 |  26 |      0(x  4) |
   107 |ADVr_TH |   1857 |      0 |  26 |      0(x  4) |
   115 |ADVx_SLT|   1961 |   2065 |  26 |      0(x  4) |
   116 |ADVy_SLT|   2065 |   1961 |  26 |      0(x  4) |
   114 |ADVr_SLT|   2169 |      0 |  26 |      0(x  4) |
------------------------------------------------------------------------
Global & Regional Statistics diagnostics: Number of lists:     3
------------------------------------------------------------------------
listId=   1 ; file name: dynStDiag
 nFlds, nActive,       freq     &     phase        |                    
   11  |   11  |    864000.000000         0.000000 |
 Regions:   0
 diag# | name   |   ipt  |  iMate |    Volume   |   mate-Vol. |         
    23 |ETAN    |      1 |      0 | 0.00000E+00 |
    26 |THETA   |      2 |      0 | 0.00000E+00 |
    27 |SALT    |     28 |      0 | 0.00000E+00 |
    28 |RELHUM  |     54 |      0 | 0.00000E+00 |
    37 |UE_VEL_C|     80 |      0 | 0.00000E+00 |
    38 |VN_VEL_C|    106 |      0 | 0.00000E+00 |
    31 |WVEL    |    132 |      0 | 0.00000E+00 |
   191 |AtPhdTdt|    158 |      0 | 0.00000E+00 |
   192 |AtPhdQdt|    184 |      0 | 0.00000E+00 |
   193 |AtPhdUdt|    210 |      0 | 0.00000E+00 |
   194 |AtPhdVdt|    236 |      0 | 0.00000E+00 |
------------------------------------------------------------------------
listId=   2 ; file name: diffStDiag
 nFlds, nActive,       freq     &     phase        |                    
    7  |    7  |    864000.000000         0.000000 |
 Regions:   0
 diag# | name   |   ipt  |  iMate |    Volume   |   mate-Vol. |         
   195 |AtPhDifT|    262 |      0 | 0.00000E+00 |
   196 |AtPhDifM|    288 |      0 | 0.00000E+00 |
   220 |AtPhDisH|    314 |      0 | 0.00000E+00 |
   218 |AtPhdtTg|    340 |      0 | 0.00000E+00 |
   219 |AtPhdtQg|    366 |      0 | 0.00000E+00 |
   189 |SHAP_dKE|    392 |      0 | 0.00000E+00 |
    98 |MoistCor|    418 |      0 | 0.00000E+00 |
------------------------------------------------------------------------
listId=   3 ; file name: flxStDiag
 nFlds, nActive,       freq     &     phase        |                    
   13  |   13  |    864000.000000         0.000000 |
 Regions:   0
 diag# | name   |   ipt  |  iMate |    Volume   |   mate-Vol. |         
   206 |AtPhSens|    444 |      0 | 0.00000E+00 |
   207 |AtPhEvap|    445 |      0 | 0.00000E+00 |
   208 |AtPhTauX|    446 |      0 | 0.00000E+00 |
   209 |AtPhTauY|    447 |      0 | 0.00000E+00 |
   210 |AtPhCAPE|    448 |      0 | 0.00000E+00 |
   197 |AtPhCnvP|    449 |      0 | 0.00000E+00 |
   198 |AtPhLscP|    450 |      0 | 0.00000E+00 |
   190 |AtPh_SST|    451 |      0 | 0.00000E+00 |
   199 |AtPhInSR|    452 |      0 | 0.00000E+00 |
   201 |AtPhOLR |    453 |      0 | 0.00000E+00 |
   203 |AtPhNSSR|    454 |      0 | 0.00000E+00 |
   204 |AtPhDSLR|    455 |      0 | 0.00000E+00 |
   205 |AtPhUSLR|    456 |      0 | 0.00000E+00 |
------------------------------------------------------------------------
(PID.TID 0000.0001)  MDS_READ_FIELD: opening global file: SST_APE_1.bin
(PID.TID 0000.0001) // =======================================================
(PID.TID 0000.0001) // Model current state
(PID.TID 0000.0001) // =======================================================
(PID.TID 0000.0001) 
(PID.TID 0000.0001) // =======================================================
(PID.TID 0000.0001) // Begin MONITOR dynamic field statistics
(PID.TID 0000.0001) // =======================================================
(PID.TID 0000.0001) %MON time_tsnumber                =                     0
(PID.TID 0000.0001) %MON time_secondsf                =   0.0000000000000E+00
(PID.TID 0000.0001) %MON dynstat_eta_max              =   0.0000000000000E+00
(PID.TID 0000.0001) %MON dynstat_eta_min              =   0.0000000000000E+00
(PID.TID 0000.0001) %MON dynstat_eta_mean             =   0.0000000000000E+00
(PID.TID 0000.0001) %MON dynstat_eta_sd               =   0.0000000000000E+00
(PID.TID 0000.0001) %MON dynstat_eta_del2             =   0.0000000000000E+00
(PID.TID 0000.0001) %MON dynstat_uvel_max             =   0.0000000000000E+00
(PID.TID 0000.0001) %MON dynstat_uvel_min             =   0.0000000000000E+00
(PID.TID 0000.0001) %MON dynstat_uvel_mean            =   0.0000000000000E+00
(PID.TID 0000.0001) %MON dynstat_uvel_sd              =   0.0000000000000E+00
(PID.TID 0000.0001) %MON dynstat_uvel_del2            =   0.0000000000000E+00
(PID.TID 0000.0001) %MON dynstat_vvel_max             =   0.0000000000000E+00
(PID.TID 0000.0001) %MON dynstat_vvel_min             =   0.0000000000000E+00
(PID.TID 0000.0001) %MON dynstat_vvel_mean            =   0.0000000000000E+00
(PID.TID 0000.0001) %MON dynstat_vvel_sd              =   0.0000000000000E+00
(PID.TID 0000.0001) %MON dynstat_vvel_del2            =   0.0000000000000E+00
(PID.TID 0000.0001) %MON dynstat_wvel_max             =   0.0000000000000E+00
(PID.TID 0000.0001) %MON dynstat_wvel_min             =   0.0000000000000E+00
(PID.TID 0000.0001) %MON dynstat_wvel_mean            =   0.0000000000000E+00
(PID.TID 0000.0001) %MON dynstat_wvel_sd              =   0.0000000000000E+00
(PID.TID 0000.0001) %MON dynstat_wvel_del2            =   0.0000000000000E+00
(PID.TID 0000.0001) %MON dynstat_theta_max            =   1.1535634846852E+03
(PID.TID 0000.0001) %MON dynstat_theta_min            =   2.5507757432656E+02
(PID.TID 0000.0001) %MON dynstat_theta_mean           =   3.2787660662240E+02
(PID.TID 0000.0001) %MON dynstat_theta_sd             =   9.0371224687477E+01
(PID.TID 0000.0001) %MON dynstat_theta_del2           =   5.5192238657586E-04
(PID.TID 0000.0001) %MON dynstat_salt_max             =   2.0315162198281E-02
(PID.TID 0000.0001) %MON dynstat_salt_min             =   0.0000000000000E+00
(PID.TID 0000.0001) %MON dynstat_salt_mean            =   1.7953625902710E-03
(PID.TID 0000.0001) %MON dynstat_salt_sd              =   3.7984703449388E-03
(PID.TID 0000.0001) %MON dynstat_salt_del2            =   1.3625554215944E-07
(PID.TID 0000.0001) %MON advcfl_uvel_max              =   0.0000000000000E+00
(PID.TID 0000.0001) %MON advcfl_vvel_max              =   0.0000000000000E+00
(PID.TID 0000.0001) %MON advcfl_wvel_max              =   0.0000000000000E+00
(PID.TID 0000.0001) %MON advcfl_W_hf_max              =   0.0000000000000E+00
(PID.TID 0000.0001) %MON am_eta_mean                  =   0.0000000000000E+00
(PID.TID 0000.0001) %MON am_uZo_mean                  =   0.0000000000000E+00
(PID.TID 0000.0001) %MON am_tot_mean                  =   0.0000000000000E+00
(PID.TID 0000.0001) %MON pe_b_mean                    =   0.0000000000000E+00
(PID.TID 0000.0001) %MON ke_max                       =   0.0000000000000E+00
(PID.TID 0000.0001) %MON ke_mean                      =   0.0000000000000E+00
(PID.TID 0000.0001) %MON ke_vol                       =   5.0986421042785E+19
(PID.TID 0000.0001) %MON vort_r_min                   =   0.0000000000000E+00
(PID.TID 0000.0001) %MON vort_r_max                   =   0.0000000000000E+00
(PID.TID 0000.0001) %MON vort_a_mean                  =  -2.4513551737851E-21
(PID.TID 0000.0001) %MON vort_a_sd                    =   8.4202189509969E-05
(PID.TID 0000.0001) %MON vort_p_mean                  =  -2.4513551737851E-21
(PID.TID 0000.0001) %MON vort_p_sd                    =   8.4202189509969E-05
(PID.TID 0000.0001) %MON surfExpan_theta_mean         =   0.0000000000000E+00
(PID.TID 0000.0001) %MON surfExpan_salt_mean          =   0.0000000000000E+00
(PID.TID 0000.0001) %MON surfExpan_Heat_mean          =   0.0000000000000E+00
(PID.TID 0000.0001) %MON En_Budget_T2PE_mean          =   0.0000000000000E+00
(PID.TID 0000.0001) // =======================================================
(PID.TID 0000.0001) // End MONITOR dynamic field statistics
(PID.TID 0000.0001) // =======================================================
(PID.TID 0000.0001)   Exporting atmospheric fluxes at iter.         0
(PID.TID 0000.0001)   Importing oceanic fields at iteration         0
(PID.TID 0000.0001) SURFACE_FLUX_INIT: opening data.atm_gray
(PID.TID 0000.0001)  OPEN_COPY_DATA_FILE: opening file data.atm_gray
(PID.TID 0000.0001) // =======================================================
(PID.TID 0000.0001) // Parameter file "data.atm_gray"
(PID.TID 0000.0001) // =======================================================
(PID.TID 0000.0001) >
(PID.TID 0000.0001) > &atmosphere_nml
(PID.TID 0000.0001) >    turb = .TRUE.,
(PID.TID 0000.0001) >    ldry_convection = .false.,
(PID.TID 0000.0001) >    lwet_convection = .TRUE.,
(PID.TID 0000.0001) >    do_virtual = .false.,
(PID.TID 0000.0001) >    two_stream = .true.,
(PID.TID 0000.0001) >    mixed_layer_bc = .false.,
(PID.TID 0000.0001) >    roughness_heat = 0.05,
(PID.TID 0000.0001) >    roughness_moist = 0.05,
(PID.TID 0000.0001) >    roughness_mom = 0.05,
(PID.TID 0000.0001) > /
(PID.TID 0000.0001) >
(PID.TID 0000.0001) > &radiation_nml
(PID.TID 0000.0001) >  select_incSW  = 1,
(PID.TID 0000.0001) >  solar_constant= 1365.,
(PID.TID 0000.0001) ># yearLength=
(PID.TID 0000.0001) ># yearPhase =
(PID.TID 0000.0001) ># obliquity =
(PID.TID 0000.0001) >  del_sol=1.,
(PID.TID 0000.0001) ># ir_tau_eq=
(PID.TID 0000.0001) ># ir_tau_pole=
(PID.TID 0000.0001) >  atm_abs= 0.22,
(PID.TID 0000.0001) ># value that Ruth is using as default:
(PID.TID 0000.0001) ># atm_abs= 0.2486,
(PID.TID 0000.0001) ># sw_diff=
(PID.TID 0000.0001) ># linear_tau=
(PID.TID 0000.0001) ># del_sw=
(PID.TID 0000.0001) >  albedo_value=0.38,
(PID.TID 0000.0001) ># window=
(PID.TID 0000.0001) ># wv_exponent=
(PID.TID 0000.0001) ># solar_exponent=
(PID.TID 0000.0001) >  wv_exponent=0.,
(PID.TID 0000.0001) > /
(PID.TID 0000.0001) >
(PID.TID 0000.0001) > &lscale_cond_nml
(PID.TID 0000.0001) ># hc =
(PID.TID 0000.0001) ># do_evap=
(PID.TID 0000.0001) > /
(PID.TID 0000.0001) >
(PID.TID 0000.0001) > &dargan_bettsmiller_nml
(PID.TID 0000.0001) >#-- default:
(PID.TID 0000.0001) >#   tau_bm = 7200.,
(PID.TID 0000.0001) >#   rhbm   = 0.8,
(PID.TID 0000.0001) >#   do_virtual   = .FALSE.,
(PID.TID 0000.0001) >#   do_shallower = .FALSE.,
(PID.TID 0000.0001) >#   do_changeqref= .FALSE.,
(PID.TID 0000.0001) >#   do_envsat    = .FALSE.,
(PID.TID 0000.0001) >#   do_taucape   = .FALSE.,
(PID.TID 0000.0001) >#     capetaubm  = 900.,
(PID.TID 0000.0001) >#     tau_min    = 2400.,
(PID.TID 0000.0001) >#   do_bm_shift  = .FALSE.,
(PID.TID 0000.0001) >#-- POG choice:
(PID.TID 0000.0001) >#  rhbm = 0.7,
(PID.TID 0000.0001) >   do_virtual= .TRUE.,
(PID.TID 0000.0001) >   do_shallower= .TRUE.,
(PID.TID 0000.0001) > /
(PID.TID 0000.0001) >
(PID.TID 0000.0001) > &surface_flux_nml
(PID.TID 0000.0001) > /
(PID.TID 0000.0001) >
(PID.TID 0000.0001) > &vert_turb_driver_nml
(PID.TID 0000.0001) >#  do_shallow_conv, do_mellor_yamada,
(PID.TID 0000.0001) >#  gust_scheme, constant_gust, use_tau,
(PID.TID 0000.0001) >#  do_molecular_diffusion
(PID.TID 0000.0001) >  do_mellor_yamada=.FALSE.,
(PID.TID 0000.0001) > /
(PID.TID 0000.0001) >
(PID.TID 0000.0001) > &diffusivity_nml
(PID.TID 0000.0001) >#  fixed_depth, depth_0, frac_inner,
(PID.TID 0000.0001) >#  rich_crit_pbl, entr_ratio, parcel_buoy,
(PID.TID 0000.0001) >#  znom, free_atm_diff, free_atm_skyhi_diff,
(PID.TID 0000.0001) >#  pbl_mcm, rich_crit_diff, mix_len, rich_prandtl,
(PID.TID 0000.0001) >#  background_m, background_t, ampns, ampns_max,
(PID.TID 0000.0001) >#  do_virtual_non_mcm
(PID.TID 0000.0001) > /
(PID.TID 0000.0001) >
(PID.TID 0000.0001) > &monin_obukhov_nml
(PID.TID 0000.0001) > /
(PID.TID 0000.0001) >
(PID.TID 0000.0001) > &my25_turb_nml
(PID.TID 0000.0001) > /
(PID.TID 0000.0001) >
(PID.TID 0000.0001) > &shallow_conv_nml
(PID.TID 0000.0001) > /
(PID.TID 0000.0001) >
(PID.TID 0000.0001) > &mixed_layer_nml
(PID.TID 0000.0001) ># evaporation, qflux_amp, depth, qflux_width
(PID.TID 0000.0001) >  depth=5000.,
(PID.TID 0000.0001) > /
(PID.TID 0000.0001) 
(PID.TID 0000.0001) SURFACE_FLUX_INIT: finished reading data.atm_gray
(PID.TID 0000.0001) MONIN_OBUKHOV_INIT: opening data.atm_gray
(PID.TID 0000.0001)  OPEN_COPY_DATA_FILE: opening file data.atm_gray
(PID.TID 0000.0001) // =======================================================
(PID.TID 0000.0001) // Parameter file "data.atm_gray"
(PID.TID 0000.0001) // =======================================================
(PID.TID 0000.0001) >
(PID.TID 0000.0001) > &atmosphere_nml
(PID.TID 0000.0001) >    turb = .TRUE.,
(PID.TID 0000.0001) >    ldry_convection = .false.,
(PID.TID 0000.0001) >    lwet_convection = .TRUE.,
(PID.TID 0000.0001) >    do_virtual = .false.,
(PID.TID 0000.0001) >    two_stream = .true.,
(PID.TID 0000.0001) >    mixed_layer_bc = .false.,
(PID.TID 0000.0001) >    roughness_heat = 0.05,
(PID.TID 0000.0001) >    roughness_moist = 0.05,
(PID.TID 0000.0001) >    roughness_mom = 0.05,
(PID.TID 0000.0001) > /
(PID.TID 0000.0001) >
(PID.TID 0000.0001) > &radiation_nml
(PID.TID 0000.0001) >  select_incSW  = 1,
(PID.TID 0000.0001) >  solar_constant= 1365.,
(PID.TID 0000.0001) ># yearLength=
(PID.TID 0000.0001) ># yearPhase =
(PID.TID 0000.0001) ># obliquity =
(PID.TID 0000.0001) >  del_sol=1.,
(PID.TID 0000.0001) ># ir_tau_eq=
(PID.TID 0000.0001) ># ir_tau_pole=
(PID.TID 0000.0001) >  atm_abs= 0.22,
(PID.TID 0000.0001) ># value that Ruth is using as default:
(PID.TID 0000.0001) ># atm_abs= 0.2486,
(PID.TID 0000.0001) ># sw_diff=
(PID.TID 0000.0001) ># linear_tau=
(PID.TID 0000.0001) ># del_sw=
(PID.TID 0000.0001) >  albedo_value=0.38,
(PID.TID 0000.0001) ># window=
(PID.TID 0000.0001) ># wv_exponent=
(PID.TID 0000.0001) ># solar_exponent=
(PID.TID 0000.0001) >  wv_exponent=0.,
(PID.TID 0000.0001) > /
(PID.TID 0000.0001) >
(PID.TID 0000.0001) > &lscale_cond_nml
(PID.TID 0000.0001) ># hc =
(PID.TID 0000.0001) ># do_evap=
(PID.TID 0000.0001) > /
(PID.TID 0000.0001) >
(PID.TID 0000.0001) > &dargan_bettsmiller_nml
(PID.TID 0000.0001) >#-- default:
(PID.TID 0000.0001) >#   tau_bm = 7200.,
(PID.TID 0000.0001) >#   rhbm   = 0.8,
(PID.TID 0000.0001) >#   do_virtual   = .FALSE.,
(PID.TID 0000.0001) >#   do_shallower = .FALSE.,
(PID.TID 0000.0001) >#   do_changeqref= .FALSE.,
(PID.TID 0000.0001) >#   do_envsat    = .FALSE.,
(PID.TID 0000.0001) >#   do_taucape   = .FALSE.,
(PID.TID 0000.0001) >#     capetaubm  = 900.,
(PID.TID 0000.0001) >#     tau_min    = 2400.,
(PID.TID 0000.0001) >#   do_bm_shift  = .FALSE.,
(PID.TID 0000.0001) >#-- POG choice:
(PID.TID 0000.0001) >#  rhbm = 0.7,
(PID.TID 0000.0001) >   do_virtual= .TRUE.,
(PID.TID 0000.0001) >   do_shallower= .TRUE.,
(PID.TID 0000.0001) > /
(PID.TID 0000.0001) >
(PID.TID 0000.0001) > &surface_flux_nml
(PID.TID 0000.0001) > /
(PID.TID 0000.0001) >
(PID.TID 0000.0001) > &vert_turb_driver_nml
(PID.TID 0000.0001) >#  do_shallow_conv, do_mellor_yamada,
(PID.TID 0000.0001) >#  gust_scheme, constant_gust, use_tau,
(PID.TID 0000.0001) >#  do_molecular_diffusion
(PID.TID 0000.0001) >  do_mellor_yamada=.FALSE.,
(PID.TID 0000.0001) > /
(PID.TID 0000.0001) >
(PID.TID 0000.0001) > &diffusivity_nml
(PID.TID 0000.0001) >#  fixed_depth, depth_0, frac_inner,
(PID.TID 0000.0001) >#  rich_crit_pbl, entr_ratio, parcel_buoy,
(PID.TID 0000.0001) >#  znom, free_atm_diff, free_atm_skyhi_diff,
(PID.TID 0000.0001) >#  pbl_mcm, rich_crit_diff, mix_len, rich_prandtl,
(PID.TID 0000.0001) >#  background_m, background_t, ampns, ampns_max,
(PID.TID 0000.0001) >#  do_virtual_non_mcm
(PID.TID 0000.0001) > /
(PID.TID 0000.0001) >
(PID.TID 0000.0001) > &monin_obukhov_nml
(PID.TID 0000.0001) > /
(PID.TID 0000.0001) >
(PID.TID 0000.0001) > &my25_turb_nml
(PID.TID 0000.0001) > /
(PID.TID 0000.0001) >
(PID.TID 0000.0001) > &shallow_conv_nml
(PID.TID 0000.0001) > /
(PID.TID 0000.0001) >
(PID.TID 0000.0001) > &mixed_layer_nml
(PID.TID 0000.0001) ># evaporation, qflux_amp, depth, qflux_width
(PID.TID 0000.0001) >  depth=5000.,
(PID.TID 0000.0001) > /
(PID.TID 0000.0001) 
(PID.TID 0000.0001) MONIN_OBUKHOV_INIT: finished reading data.atm_gray
(PID.TID 0000.0001) DIFFUSIVITY_INIT: opening data.atm_gray
(PID.TID 0000.0001)  OPEN_COPY_DATA_FILE: opening file data.atm_gray
(PID.TID 0000.0001) // =======================================================
(PID.TID 0000.0001) // Parameter file "data.atm_gray"
(PID.TID 0000.0001) // =======================================================
(PID.TID 0000.0001) >
(PID.TID 0000.0001) > &atmosphere_nml
(PID.TID 0000.0001) >    turb = .TRUE.,
(PID.TID 0000.0001) >    ldry_convection = .false.,
(PID.TID 0000.0001) >    lwet_convection = .TRUE.,
(PID.TID 0000.0001) >    do_virtual = .false.,
(PID.TID 0000.0001) >    two_stream = .true.,
(PID.TID 0000.0001) >    mixed_layer_bc = .false.,
(PID.TID 0000.0001) >    roughness_heat = 0.05,
(PID.TID 0000.0001) >    roughness_moist = 0.05,
(PID.TID 0000.0001) >    roughness_mom = 0.05,
(PID.TID 0000.0001) > /
(PID.TID 0000.0001) >
(PID.TID 0000.0001) > &radiation_nml
(PID.TID 0000.0001) >  select_incSW  = 1,
(PID.TID 0000.0001) >  solar_constant= 1365.,
(PID.TID 0000.0001) ># yearLength=
(PID.TID 0000.0001) ># yearPhase =
(PID.TID 0000.0001) ># obliquity =
(PID.TID 0000.0001) >  del_sol=1.,
(PID.TID 0000.0001) ># ir_tau_eq=
(PID.TID 0000.0001) ># ir_tau_pole=
(PID.TID 0000.0001) >  atm_abs= 0.22,
(PID.TID 0000.0001) ># value that Ruth is using as default:
(PID.TID 0000.0001) ># atm_abs= 0.2486,
(PID.TID 0000.0001) ># sw_diff=
(PID.TID 0000.0001) ># linear_tau=
(PID.TID 0000.0001) ># del_sw=
(PID.TID 0000.0001) >  albedo_value=0.38,
(PID.TID 0000.0001) ># window=
(PID.TID 0000.0001) ># wv_exponent=
(PID.TID 0000.0001) ># solar_exponent=
(PID.TID 0000.0001) >  wv_exponent=0.,
(PID.TID 0000.0001) > /
(PID.TID 0000.0001) >
(PID.TID 0000.0001) > &lscale_cond_nml
(PID.TID 0000.0001) ># hc =
(PID.TID 0000.0001) ># do_evap=
(PID.TID 0000.0001) > /
(PID.TID 0000.0001) >
(PID.TID 0000.0001) > &dargan_bettsmiller_nml
(PID.TID 0000.0001) >#-- default:
(PID.TID 0000.0001) >#   tau_bm = 7200.,
(PID.TID 0000.0001) >#   rhbm   = 0.8,
(PID.TID 0000.0001) >#   do_virtual   = .FALSE.,
(PID.TID 0000.0001) >#   do_shallower = .FALSE.,
(PID.TID 0000.0001) >#   do_changeqref= .FALSE.,
(PID.TID 0000.0001) >#   do_envsat    = .FALSE.,
(PID.TID 0000.0001) >#   do_taucape   = .FALSE.,
(PID.TID 0000.0001) >#     capetaubm  = 900.,
(PID.TID 0000.0001) >#     tau_min    = 2400.,
(PID.TID 0000.0001) >#   do_bm_shift  = .FALSE.,
(PID.TID 0000.0001) >#-- POG choice:
(PID.TID 0000.0001) >#  rhbm = 0.7,
(PID.TID 0000.0001) >   do_virtual= .TRUE.,
(PID.TID 0000.0001) >   do_shallower= .TRUE.,
(PID.TID 0000.0001) > /
(PID.TID 0000.0001) >
(PID.TID 0000.0001) > &surface_flux_nml
(PID.TID 0000.0001) > /
(PID.TID 0000.0001) >
(PID.TID 0000.0001) > &vert_turb_driver_nml
(PID.TID 0000.0001) >#  do_shallow_conv, do_mellor_yamada,
(PID.TID 0000.0001) >#  gust_scheme, constant_gust, use_tau,
(PID.TID 0000.0001) >#  do_molecular_diffusion
(PID.TID 0000.0001) >  do_mellor_yamada=.FALSE.,
(PID.TID 0000.0001) > /
(PID.TID 0000.0001) >
(PID.TID 0000.0001) > &diffusivity_nml
(PID.TID 0000.0001) >#  fixed_depth, depth_0, frac_inner,
(PID.TID 0000.0001) >#  rich_crit_pbl, entr_ratio, parcel_buoy,
(PID.TID 0000.0001) >#  znom, free_atm_diff, free_atm_skyhi_diff,
(PID.TID 0000.0001) >#  pbl_mcm, rich_crit_diff, mix_len, rich_prandtl,
(PID.TID 0000.0001) >#  background_m, background_t, ampns, ampns_max,
(PID.TID 0000.0001) >#  do_virtual_non_mcm
(PID.TID 0000.0001) > /
(PID.TID 0000.0001) >
(PID.TID 0000.0001) > &monin_obukhov_nml
(PID.TID 0000.0001) > /
(PID.TID 0000.0001) >
(PID.TID 0000.0001) > &my25_turb_nml
(PID.TID 0000.0001) > /
(PID.TID 0000.0001) >
(PID.TID 0000.0001) > &shallow_conv_nml
(PID.TID 0000.0001) > /
(PID.TID 0000.0001) >
(PID.TID 0000.0001) > &mixed_layer_nml
(PID.TID 0000.0001) ># evaporation, qflux_amp, depth, qflux_width
(PID.TID 0000.0001) >  depth=5000.,
(PID.TID 0000.0001) > /
(PID.TID 0000.0001) 
(PID.TID 0000.0001) DIFFUSIVITY_INIT: finished reading data.atm_gray
(PID.TID 0000.0001) SOLVE_FOR_PRESSURE: putPmEinXvector =    F
 cg2d: Sum(rhs),rhsMax =   2.98314262181520E-10  1.15643245709385E+02
(PID.TID 0000.0001)      cg2d_init_res =   3.76284312959005E+03
(PID.TID 0000.0001)      cg2d_iters(min,last) =      -1      12
(PID.TID 0000.0001)      cg2d_last_res =   5.53427932930136E-11
(PID.TID 0000.0001) // =======================================================
(PID.TID 0000.0001) // Begin MONITOR dynamic field statistics
(PID.TID 0000.0001) // =======================================================
(PID.TID 0000.0001) %MON time_tsnumber                =                     1
(PID.TID 0000.0001) %MON time_secondsf                =   3.6000000000000E+02
(PID.TID 0000.0001) %MON dynstat_eta_max              =   1.4279177601168E+01
(PID.TID 0000.0001) %MON dynstat_eta_min              =  -8.7978186035698E+00
(PID.TID 0000.0001) %MON dynstat_eta_mean             =   2.6778371680327E-15
(PID.TID 0000.0001) %MON dynstat_eta_sd               =   7.0826410630125E+00
(PID.TID 0000.0001) %MON dynstat_eta_del2             =   3.6116162885768E-02
(PID.TID 0000.0001) %MON dynstat_uvel_max             =   1.3016800146121E+00
(PID.TID 0000.0001) %MON dynstat_uvel_min             =  -1.3016800146121E+00
(PID.TID 0000.0001) %MON dynstat_uvel_mean            =   0.0000000000000E+00
(PID.TID 0000.0001) %MON dynstat_uvel_sd              =   4.2127420517919E-01
(PID.TID 0000.0001) %MON dynstat_uvel_del2            =   1.0799549628826E-04
(PID.TID 0000.0001) %MON dynstat_vvel_max             =   1.3016800146121E+00
(PID.TID 0000.0001) %MON dynstat_vvel_min             =  -1.3016800146121E+00
(PID.TID 0000.0001) %MON dynstat_vvel_mean            =  -2.5104723450307E-18
(PID.TID 0000.0001) %MON dynstat_vvel_sd              =   4.2127420517919E-01
(PID.TID 0000.0001) %MON dynstat_vvel_del2            =   1.0799549628826E-04
(PID.TID 0000.0001) %MON dynstat_wvel_max             =   1.7170597841977E-02
(PID.TID 0000.0001) %MON dynstat_wvel_min             =  -1.4115125359213E-02
(PID.TID 0000.0001) %MON dynstat_wvel_mean            =   4.3242579828442E-18
(PID.TID 0000.0001) %MON dynstat_wvel_sd              =   4.2423217473424E-03
(PID.TID 0000.0001) %MON dynstat_wvel_del2            =   8.6997822494988E-06
(PID.TID 0000.0001) %MON dynstat_theta_max            =   1.1536174751755E+03
(PID.TID 0000.0001) %MON dynstat_theta_min            =   2.5512006243575E+02
(PID.TID 0000.0001) %MON dynstat_theta_mean           =   3.2787649881739E+02
(PID.TID 0000.0001) %MON dynstat_theta_sd             =   9.0371891346055E+01
(PID.TID 0000.0001) %MON dynstat_theta_del2           =   5.5169713276427E-04
(PID.TID 0000.0001) %MON dynstat_salt_max             =   2.0315407882417E-02
(PID.TID 0000.0001) %MON dynstat_salt_min             =   0.0000000000000E+00
(PID.TID 0000.0001) %MON dynstat_salt_mean            =   1.7995564713765E-03
(PID.TID 0000.0001) %MON dynstat_salt_sd              =   3.8012117985273E-03
(PID.TID 0000.0001) %MON dynstat_salt_del2            =   1.5474848644159E-07
(PID.TID 0000.0001) %MON advcfl_uvel_max              =   3.4356045491987E-03
(PID.TID 0000.0001) %MON advcfl_vvel_max              =   3.4356045491987E-03
(PID.TID 0000.0001) %MON advcfl_wvel_max              =   1.2513369344864E-03
(PID.TID 0000.0001) %MON advcfl_W_hf_max              =   1.3788457929456E-03
(PID.TID 0000.0001) %MON am_eta_mean                  =   0.0000000000000E+00
(PID.TID 0000.0001) %MON am_uZo_mean                  =   3.6777087767332E-08
(PID.TID 0000.0001) %MON am_tot_mean                  =   3.6777087767332E-08
(PID.TID 0000.0001) %MON pe_b_mean                    =   2.1245751682931E-04
(PID.TID 0000.0001) %MON ke_max                       =   8.5367290608323E-01
(PID.TID 0000.0001) %MON ke_mean                      =   1.7747195594936E-01
(PID.TID 0000.0001) %MON ke_vol                       =   5.0986421042785E+19
(PID.TID 0000.0001) %MON vort_r_min                   =  -3.1534869439159E-08
(PID.TID 0000.0001) %MON vort_r_max                   =   3.1534869439159E-08
(PID.TID 0000.0001) %MON vort_a_mean                  =   7.3540655213554E-21
(PID.TID 0000.0001) %MON vort_a_sd                    =   8.4202189512624E-05
(PID.TID 0000.0001) %MON vort_p_mean                  =   7.3540655213554E-21
(PID.TID 0000.0001) %MON vort_p_sd                    =   8.4202189512624E-05
(PID.TID 0000.0001) %MON surfExpan_theta_mean         =  -2.8165385257266E-01
(PID.TID 0000.0001) %MON surfExpan_salt_mean          =  -2.6045821454539E-05
(PID.TID 0000.0001) %MON surfExpan_Heat_mean          =  -2.4699235031096E+01
(PID.TID 0000.0001) %MON En_Budget_T2PE_mean          =   2.8651652141541E+00
(PID.TID 0000.0001) // =======================================================
(PID.TID 0000.0001) // End MONITOR dynamic field statistics
(PID.TID 0000.0001) // =======================================================
 cg2d: Sum(rhs),rhsMax =  -2.91038304567337E-10  3.16094521413045E+02
(PID.TID 0000.0001)      cg2d_init_res =   7.45860181843876E+03
(PID.TID 0000.0001)      cg2d_iters(min,last) =      -1      12
(PID.TID 0000.0001)      cg2d_last_res =   8.44299908372288E-11
(PID.TID 0000.0001) // =======================================================
(PID.TID 0000.0001) // Begin MONITOR dynamic field statistics
(PID.TID 0000.0001) // =======================================================
(PID.TID 0000.0001) %MON time_tsnumber                =                     2
(PID.TID 0000.0001) %MON time_secondsf                =   7.2000000000000E+02
(PID.TID 0000.0001) %MON dynstat_eta_max              =   4.0724419673422E+01
(PID.TID 0000.0001) %MON dynstat_eta_min              =  -2.6346141786130E+01
(PID.TID 0000.0001) %MON dynstat_eta_mean             =   0.0000000000000E+00
(PID.TID 0000.0001) %MON dynstat_eta_sd               =   2.1157316119687E+01
(PID.TID 0000.0001) %MON dynstat_eta_del2             =   8.1655952527243E-02
(PID.TID 0000.0001) %MON dynstat_uvel_max             =   2.5956301233779E+00
(PID.TID 0000.0001) %MON dynstat_uvel_min             =  -2.5959440387769E+00
(PID.TID 0000.0001) %MON dynstat_uvel_mean            =   5.0864536850985E-03
(PID.TID 0000.0001) %MON dynstat_uvel_sd              =   8.4123851055968E-01
(PID.TID 0000.0001) %MON dynstat_uvel_del2            =   2.0793479314629E-04
(PID.TID 0000.0001) %MON dynstat_vvel_max             =   2.5959250085479E+00
(PID.TID 0000.0001) %MON dynstat_vvel_min             =  -2.5957679251484E+00
(PID.TID 0000.0001) %MON dynstat_vvel_mean            =   5.1158610991769E-03
(PID.TID 0000.0001) %MON dynstat_vvel_sd              =   8.4123868554731E-01
(PID.TID 0000.0001) %MON dynstat_vvel_del2            =   2.0795876802485E-04
(PID.TID 0000.0001) %MON dynstat_wvel_max             =   3.2825127713150E-02
(PID.TID 0000.0001) %MON dynstat_wvel_min             =  -2.7087164361755E-02
(PID.TID 0000.0001) %MON dynstat_wvel_mean            =   1.0849956393318E-17
(PID.TID 0000.0001) %MON dynstat_wvel_sd              =   8.4287463206405E-03
(PID.TID 0000.0001) %MON dynstat_wvel_del2            =   1.5680328340528E-05
(PID.TID 0000.0001) %MON dynstat_theta_max            =   1.1536895580522E+03
(PID.TID 0000.0001) %MON dynstat_theta_min            =   2.5519683747285E+02
(PID.TID 0000.0001) %MON dynstat_theta_mean           =   3.2787698776875E+02
(PID.TID 0000.0001) %MON dynstat_theta_sd             =   9.0372326042077E+01
(PID.TID 0000.0001) %MON dynstat_theta_del2           =   5.5370011865115E-04
(PID.TID 0000.0001) %MON dynstat_salt_max             =   2.0315653708615E-02
(PID.TID 0000.0001) %MON dynstat_salt_min             =   0.0000000000000E+00
(PID.TID 0000.0001) %MON dynstat_salt_mean            =   1.8036501850843E-03
(PID.TID 0000.0001) %MON dynstat_salt_sd              =   3.8037417576985E-03
(PID.TID 0000.0001) %MON dynstat_salt_del2            =   1.8257998024724E-07
(PID.TID 0000.0001) %MON advcfl_uvel_max              =   7.1387883997080E-03
(PID.TID 0000.0001) %MON advcfl_vvel_max              =   7.1385412171263E-03
(PID.TID 0000.0001) %MON advcfl_wvel_max              =   2.2607761885588E-03
(PID.TID 0000.0001) %MON advcfl_W_hf_max              =   2.4909894222326E-03
(PID.TID 0000.0001) %MON am_eta_mean                  =  -6.2347056404663E+08
(PID.TID 0000.0001) %MON am_uZo_mean                  =   6.2373481001024E+08
(PID.TID 0000.0001) %MON am_tot_mean                  =   2.6424596360576E+05
(PID.TID 0000.0001) %MON pe_b_mean                    =   1.8958448158532E-03
(PID.TID 0000.0001) %MON ke_max                       =   3.4111626739979E+00
(PID.TID 0000.0001) %MON ke_mean                      =   7.0770840087795E-01
(PID.TID 0000.0001) %MON ke_vol                       =   5.0986421042785E+19
(PID.TID 0000.0001) %MON vort_r_min                   =  -1.0859370361729E-07
(PID.TID 0000.0001) %MON vort_r_max                   =   1.0859234839584E-07
(PID.TID 0000.0001) %MON vort_a_mean                  =  -1.2011640351547E-19
(PID.TID 0000.0001) %MON vort_a_sd                    =   8.4206364615986E-05
(PID.TID 0000.0001) %MON vort_p_mean                  =  -1.2501911340248E-19
(PID.TID 0000.0001) %MON vort_p_sd                    =   8.4203755438742E-05
(PID.TID 0000.0001) %MON surfExpan_theta_mean         =  -5.6145488511576E-01
(PID.TID 0000.0001) %MON surfExpan_salt_mean          =  -5.1878754977079E-05
(PID.TID 0000.0001) %MON surfExpan_Heat_mean          =  -4.9238515249507E+01
(PID.TID 0000.0001) %MON En_Budget_T2PE_mean          =   5.7208600015889E+00
(PID.TID 0000.0001) // =======================================================
(PID.TID 0000.0001) // End MONITOR dynamic field statistics
(PID.TID 0000.0001) // =======================================================
 cg2d: Sum(rhs),rhsMax =   2.91038304567337E-10  6.03359446141011E+02
(PID.TID 0000.0001)      cg2d_init_res =   1.11043797171641E+04
(PID.TID 0000.0001)      cg2d_iters(min,last) =      -1      12
(PID.TID 0000.0001)      cg2d_last_res =   9.62502992745023E-11
(PID.TID 0000.0001) // =======================================================
(PID.TID 0000.0001) // Begin MONITOR dynamic field statistics
(PID.TID 0000.0001) // =======================================================
(PID.TID 0000.0001) %MON time_tsnumber                =                     3
(PID.TID 0000.0001) %MON time_secondsf                =   1.0800000000000E+03
(PID.TID 0000.0001) %MON dynstat_eta_max              =   7.7550668423938E+01
(PID.TID 0000.0001) %MON dynstat_eta_min              =  -5.2570198075144E+01
(PID.TID 0000.0001) %MON dynstat_eta_mean             =   1.4728104424180E-14
(PID.TID 0000.0001) %MON dynstat_eta_sd               =   4.2126813491644E+01
(PID.TID 0000.0001) %MON dynstat_eta_del2             =   1.2211990195994E-01
(PID.TID 0000.0001) %MON dynstat_uvel_max             =   3.8768797915375E+00
(PID.TID 0000.0001) %MON dynstat_uvel_min             =  -3.8777186240079E+00
(PID.TID 0000.0001) %MON dynstat_uvel_mean            =   1.3318243506401E-02
(PID.TID 0000.0001) %MON dynstat_uvel_sd              =   1.2585666615345E+00
(PID.TID 0000.0001) %MON dynstat_uvel_del2            =   2.9875118326866E-04
(PID.TID 0000.0001) %MON dynstat_vvel_max             =   3.8776878207780E+00
(PID.TID 0000.0001) %MON dynstat_vvel_min             =  -3.8772466103227E+00
(PID.TID 0000.0001) %MON dynstat_vvel_mean            =   1.3406048281136E-02
(PID.TID 0000.0001) %MON dynstat_vvel_sd              =   1.2585671880591E+00
(PID.TID 0000.0001) %MON dynstat_vvel_del2            =   2.9880260371137E-04
(PID.TID 0000.0001) %MON dynstat_wvel_max             =   4.6241598996424E-02
(PID.TID 0000.0001) %MON dynstat_wvel_min             =  -3.9080719181391E-02
(PID.TID 0000.0001) %MON dynstat_wvel_mean            =  -3.3965080883431E-17
(PID.TID 0000.0001) %MON dynstat_wvel_sd              =   1.2525018833464E-02
(PID.TID 0000.0001) %MON dynstat_wvel_del2            =   2.0696928473519E-05
(PID.TID 0000.0001) %MON dynstat_theta_max            =   1.1537735914098E+03
(PID.TID 0000.0001) %MON dynstat_theta_min            =   2.5532437478083E+02
(PID.TID 0000.0001) %MON dynstat_theta_mean           =   3.2787821660212E+02
(PID.TID 0000.0001) %MON dynstat_theta_sd             =   9.0372189928530E+01
(PID.TID 0000.0001) %MON dynstat_theta_del2           =   5.5737842006265E-04
(PID.TID 0000.0001) %MON dynstat_salt_max             =   2.0315899748885E-02
(PID.TID 0000.0001) %MON dynstat_salt_min             =   0.0000000000000E+00
(PID.TID 0000.0001) %MON dynstat_salt_mean            =   1.8074292401501E-03
(PID.TID 0000.0001) %MON dynstat_salt_sd              =   3.8063227324987E-03
(PID.TID 0000.0001) %MON dynstat_salt_del2            =   2.1608258159308E-07
(PID.TID 0000.0001) %MON advcfl_uvel_max              =   1.0778827041678E-02
(PID.TID 0000.0001) %MON advcfl_vvel_max              =   1.0778126300255E-02
(PID.TID 0000.0001) %MON advcfl_wvel_max              =   2.9369746476046E-03
(PID.TID 0000.0001) %MON advcfl_W_hf_max              =   3.2357514745850E-03
(PID.TID 0000.0001) %MON am_eta_mean                  =  -1.8676245004180E+09
(PID.TID 0000.0001) %MON am_uZo_mean                  =   1.8681131768446E+09
(PID.TID 0000.0001) %MON am_tot_mean                  =   4.8867642659736E+05
(PID.TID 0000.0001) %MON pe_b_mean                    =   7.5162091261025E-03
(PID.TID 0000.0001) %MON ke_max                       =   7.6238224541250E+00
(PID.TID 0000.0001) %MON ke_mean                      =   1.5841692530629E+00
(PID.TID 0000.0001) %MON ke_vol                       =   5.0986421042785E+19
(PID.TID 0000.0001) %MON vort_r_min                   =  -2.2127398433311E-07
(PID.TID 0000.0001) %MON vort_r_max                   =   2.2134493568837E-07
(PID.TID 0000.0001) %MON vort_a_mean                  =   1.4953266560089E-19
(PID.TID 0000.0001) %MON vort_a_sd                    =   8.4213132605611E-05
(PID.TID 0000.0001) %MON vort_p_mean                  =   1.5443537413138E-19
(PID.TID 0000.0001) %MON vort_p_sd                    =   8.4205314857470E-05
(PID.TID 0000.0001) %MON surfExpan_theta_mean         =  -8.3794758753879E-01
(PID.TID 0000.0001) %MON surfExpan_salt_mean          =  -7.7424247389520E-05
(PID.TID 0000.0001) %MON surfExpan_Heat_mean          =  -7.3493641783353E+01
(PID.TID 0000.0001) %MON En_Budget_T2PE_mean          =   8.5554523721292E+00
(PID.TID 0000.0001) // =======================================================
(PID.TID 0000.0001) // End MONITOR dynamic field statistics
(PID.TID 0000.0001) // =======================================================
 cg2d: Sum(rhs),rhsMax =   1.74622982740402E-09  9.99637328193204E+02
(PID.TID 0000.0001)      cg2d_init_res =   1.47091060079448E+04
(PID.TID 0000.0001)      cg2d_iters(min,last) =      -1      12
(PID.TID 0000.0001)      cg2d_last_res =   1.04497883133778E-10
(PID.TID 0000.0001) // =======================================================
(PID.TID 0000.0001) // Begin MONITOR dynamic field statistics
(PID.TID 0000.0001) // =======================================================
(PID.TID 0000.0001) %MON time_tsnumber                =                     4
(PID.TID 0000.0001) %MON time_secondsf                =   1.4400000000000E+03
(PID.TID 0000.0001) %MON dynstat_eta_max              =   1.2458280911933E+02
(PID.TID 0000.0001) %MON dynstat_eta_min              =  -8.7369752057700E+01
(PID.TID 0000.0001) %MON dynstat_eta_mean             =   1.6067023008196E-14
(PID.TID 0000.0001) %MON dynstat_eta_sd               =   6.9902167130394E+01
(PID.TID 0000.0001) %MON dynstat_eta_del2             =   1.5459773765718E-01
(PID.TID 0000.0001) %MON dynstat_uvel_max             =   5.1467873956441E+00
(PID.TID 0000.0001) %MON dynstat_uvel_min             =  -5.1484977354463E+00
(PID.TID 0000.0001) %MON dynstat_uvel_mean            =   2.4655487441740E-02
(PID.TID 0000.0001) %MON dynstat_uvel_sd              =   1.6726798628346E+00
(PID.TID 0000.0001) %MON dynstat_uvel_del2            =   3.8345501015457E-04
(PID.TID 0000.0001) %MON dynstat_vvel_max             =   5.1484725269211E+00
(PID.TID 0000.0001) %MON dynstat_vvel_min             =  -5.1475787552487E+00
(PID.TID 0000.0001) %MON dynstat_vvel_mean            =   2.4830589891775E-02
(PID.TID 0000.0001) %MON dynstat_vvel_sd              =   1.6726810367829E+00
(PID.TID 0000.0001) %MON dynstat_vvel_del2            =   3.8352671639476E-04
(PID.TID 0000.0001) %MON dynstat_wvel_max             =   5.7666865522154E-02
(PID.TID 0000.0001) %MON dynstat_wvel_min             =  -5.2729069058309E-02
(PID.TID 0000.0001) %MON dynstat_wvel_mean            =   0.0000000000000E+00
(PID.TID 0000.0001) %MON dynstat_wvel_sd              =   1.6542766956371E-02
(PID.TID 0000.0001) %MON dynstat_wvel_del2            =   2.4605286562278E-05
(PID.TID 0000.0001) %MON dynstat_theta_max            =   1.1538232996381E+03
(PID.TID 0000.0001) %MON dynstat_theta_min            =   2.5544944304683E+02
(PID.TID 0000.0001) %MON dynstat_theta_mean           =   3.2787985645682E+02
(PID.TID 0000.0001) %MON dynstat_theta_sd             =   9.0371758905207E+01
(PID.TID 0000.0001) %MON dynstat_theta_del2           =   5.6016350156482E-04
(PID.TID 0000.0001) %MON dynstat_salt_max             =   2.0316146074844E-02
(PID.TID 0000.0001) %MON dynstat_salt_min             =   0.0000000000000E+00
(PID.TID 0000.0001) %MON dynstat_salt_mean            =   1.8110074874281E-03
(PID.TID 0000.0001) %MON dynstat_salt_sd              =   3.8089330103726E-03
(PID.TID 0000.0001) %MON dynstat_salt_del2            =   2.5264799400232E-07
(PID.TID 0000.0001) %MON advcfl_uvel_max              =   1.4418691473029E-02
(PID.TID 0000.0001) %MON advcfl_vvel_max              =   1.4417085738763E-02
(PID.TID 0000.0001) %MON advcfl_wvel_max              =   3.4896200943130E-03
(PID.TID 0000.0001) %MON advcfl_W_hf_max              =   3.8421898086127E-03
(PID.TID 0000.0001) %MON am_eta_mean                  =  -3.7268055187102E+09
(PID.TID 0000.0001) %MON am_uZo_mean                  =   3.7273009507113E+09
(PID.TID 0000.0001) %MON am_tot_mean                  =   4.9543200107336E+05
(PID.TID 0000.0001) %MON pe_b_mean                    =   2.0694880139270E-02
(PID.TID 0000.0001) %MON ke_max                       =   1.3431554859444E+01
(PID.TID 0000.0001) %MON ke_mean                      =   2.7984721128004E+00
(PID.TID 0000.0001) %MON ke_vol                       =   5.0986421042785E+19
(PID.TID 0000.0001) %MON vort_r_min                   =  -3.6775559636441E-07
(PID.TID 0000.0001) %MON vort_r_max                   =   3.6796435531595E-07
(PID.TID 0000.0001) %MON vort_a_mean                  =   1.7159486216496E-19
(PID.TID 0000.0001) %MON vort_a_sd                    =   8.4222466349670E-05
(PID.TID 0000.0001) %MON vort_p_mean                  =   1.6914350279362E-19
(PID.TID 0000.0001) %MON vort_p_sd                    =   8.4206861455412E-05
(PID.TID 0000.0001) %MON surfExpan_theta_mean         =  -1.1103185340653E+00
(PID.TID 0000.0001) %MON surfExpan_salt_mean          =  -1.0263250252956E-04
(PID.TID 0000.0001) %MON surfExpan_Heat_mean          =  -9.7396484827494E+01
(PID.TID 0000.0001) %MON En_Budget_T2PE_mean          =   1.1364314751669E+01
(PID.TID 0000.0001) // =======================================================
(PID.TID 0000.0001) // End MONITOR dynamic field statistics
(PID.TID 0000.0001) // =======================================================
 cg2d: Sum(rhs),rhsMax =   3.49245965480804E-10  1.48956317529687E+03
(PID.TID 0000.0001)      cg2d_init_res =   1.82672726594235E+04
(PID.TID 0000.0001)      cg2d_iters(min,last) =      -1      12
(PID.TID 0000.0001)      cg2d_last_res =   1.29877640127582E-10
(PID.TID 0000.0001) // =======================================================
(PID.TID 0000.0001) // Begin MONITOR dynamic field statistics
(PID.TID 0000.0001) // =======================================================
(PID.TID 0000.0001) %MON time_tsnumber                =                     5
(PID.TID 0000.0001) %MON time_secondsf                =   1.8000000000000E+03
(PID.TID 0000.0001) %MON dynstat_eta_max              =   1.8564495123944E+02
(PID.TID 0000.0001) %MON dynstat_eta_min              =  -1.3061984755784E+02
(PID.TID 0000.0001) %MON dynstat_eta_mean             =  -3.7489720352458E-14
(PID.TID 0000.0001) %MON dynstat_eta_sd               =   1.0438916121410E+02
(PID.TID 0000.0001) %MON dynstat_eta_del2             =   1.8085950741618E-01
(PID.TID 0000.0001) %MON dynstat_uvel_max             =   6.4051942021056E+00
(PID.TID 0000.0001) %MON dynstat_uvel_min             =  -6.4077725330412E+00
(PID.TID 0000.0001) %MON dynstat_uvel_mean            =   3.9051844022711E-02
(PID.TID 0000.0001) %MON dynstat_uvel_sd              =   2.0828885378727E+00
(PID.TID 0000.0001) %MON dynstat_uvel_del2            =   4.6567152561315E-04
(PID.TID 0000.0001) %MON dynstat_vvel_max             =   6.4077662871786E+00
(PID.TID 0000.0001) %MON dynstat_vvel_min             =  -6.4063145806992E+00
(PID.TID 0000.0001) %MON dynstat_vvel_mean            =   3.9343039337459E-02
(PID.TID 0000.0001) %MON dynstat_vvel_sd              =   2.0828902509748E+00
(PID.TID 0000.0001) %MON dynstat_vvel_del2            =   4.6575729672014E-04
(PID.TID 0000.0001) %MON dynstat_wvel_max             =   6.7960351902411E-02
(PID.TID 0000.0001) %MON dynstat_wvel_min             =  -6.6704315035773E-02
(PID.TID 0000.0001) %MON dynstat_wvel_mean            =  -1.1321693627810E-17
(PID.TID 0000.0001) %MON dynstat_wvel_sd              =   2.0494813267667E-02
(PID.TID 0000.0001) %MON dynstat_wvel_del2            =   2.7802524163211E-05
(PID.TID 0000.0001) %MON dynstat_theta_max            =   1.1538738581578E+03
(PID.TID 0000.0001) %MON dynstat_theta_min            =   2.5556841427088E+02
(PID.TID 0000.0001) %MON dynstat_theta_mean           =   3.2788163366440E+02
(PID.TID 0000.0001) %MON dynstat_theta_sd             =   9.0371249424041E+01
(PID.TID 0000.0001) %MON dynstat_theta_del2           =   5.6253647854742E-04
(PID.TID 0000.0001) %MON dynstat_salt_max             =   2.0316392747085E-02
(PID.TID 0000.0001) %MON dynstat_salt_min             =   0.0000000000000E+00
(PID.TID 0000.0001) %MON dynstat_salt_mean            =   1.8144773743475E-03
(PID.TID 0000.0001) %MON dynstat_salt_sd              =   3.8115556466131E-03
(PID.TID 0000.0001) %MON dynstat_salt_del2            =   2.8985814392464E-07
(PID.TID 0000.0001) %MON advcfl_uvel_max              =   1.8074835898525E-02
(PID.TID 0000.0001) %MON advcfl_vvel_max              =   1.8071921364936E-02
(PID.TID 0000.0001) %MON advcfl_wvel_max              =   4.0425772124861E-03
(PID.TID 0000.0001) %MON advcfl_W_hf_max              =   4.4496442620813E-03
(PID.TID 0000.0001) %MON am_eta_mean                  =  -6.1938196274663E+09
(PID.TID 0000.0001) %MON am_uZo_mean                  =   6.1939306337968E+09
(PID.TID 0000.0001) %MON am_tot_mean                  =   1.1100633049297E+05
(PID.TID 0000.0001) %MON pe_b_mean                    =   4.6152204587084E-02
(PID.TID 0000.0001) %MON ke_max                       =   2.0809260767568E+01
(PID.TID 0000.0001) %MON ke_mean                      =   4.3399646900367E+00
(PID.TID 0000.0001) %MON ke_vol                       =   5.0986421042785E+19
(PID.TID 0000.0001) %MON vort_r_min                   =  -5.4727172704520E-07
(PID.TID 0000.0001) %MON vort_r_max                   =   5.4766199614291E-07
(PID.TID 0000.0001) %MON vort_a_mean                  =   1.2256775868926E-19
(PID.TID 0000.0001) %MON vort_a_sd                    =   8.4234337238796E-05
(PID.TID 0000.0001) %MON vort_p_mean                  =   1.2256775344825E-19
(PID.TID 0000.0001) %MON vort_p_sd                    =   8.4208392993179E-05
(PID.TID 0000.0001) %MON surfExpan_theta_mean         =  -1.3777038997694E+00
(PID.TID 0000.0001) %MON surfExpan_salt_mean          =  -1.2743911043958E-04
(PID.TID 0000.0001) %MON surfExpan_Heat_mean          =  -1.2087426361219E+02
(PID.TID 0000.0001) %MON En_Budget_T2PE_mean          =   1.4142464574128E+01
(PID.TID 0000.0001) // =======================================================
(PID.TID 0000.0001) // End MONITOR dynamic field statistics
(PID.TID 0000.0001) // =======================================================
 cg2d: Sum(rhs),rhsMax =   1.62981450557709E-09  2.07029161133611E+03
(PID.TID 0000.0001)      cg2d_init_res =   2.17669929961609E+04
(PID.TID 0000.0001)      cg2d_iters(min,last) =      -1      13
(PID.TID 0000.0001)      cg2d_last_res =   1.52210998852338E-11
(PID.TID 0000.0001) // =======================================================
(PID.TID 0000.0001) // Begin MONITOR dynamic field statistics
(PID.TID 0000.0001) // =======================================================
(PID.TID 0000.0001) %MON time_tsnumber                =                     6
(PID.TID 0000.0001) %MON time_secondsf                =   2.1600000000000E+03
(PID.TID 0000.0001) %MON dynstat_eta_max              =   2.5802691579678E+02
(PID.TID 0000.0001) %MON dynstat_eta_min              =  -1.8217157305923E+02
(PID.TID 0000.0001) %MON dynstat_eta_mean             =   3.7489720352458E-14
(PID.TID 0000.0001) %MON dynstat_eta_sd               =   1.4547932079071E+02
(PID.TID 0000.0001) %MON dynstat_eta_del2             =   2.0463628971847E-01
(PID.TID 0000.0001) %MON dynstat_uvel_max             =   7.6504827793877E+00
(PID.TID 0000.0001) %MON dynstat_uvel_min             =  -7.6540109604541E+00
(PID.TID 0000.0001) %MON dynstat_uvel_mean            =   5.6450653743921E-02
(PID.TID 0000.0001) %MON dynstat_uvel_sd              =   2.4885289140702E+00
(PID.TID 0000.0001) %MON dynstat_uvel_del2            =   5.4590489509301E-04
(PID.TID 0000.0001) %MON dynstat_vvel_max             =   7.6540388353686E+00
(PID.TID 0000.0001) %MON dynstat_vvel_min             =  -7.6519219510986E+00
(PID.TID 0000.0001) %MON dynstat_vvel_mean            =   5.6886541984035E-02
(PID.TID 0000.0001) %MON dynstat_vvel_sd              =   2.4885309041815E+00
(PID.TID 0000.0001) %MON dynstat_vvel_del2            =   5.4600663812131E-04
(PID.TID 0000.0001) %MON dynstat_wvel_max             =   7.7794283833190E-02
(PID.TID 0000.0001) %MON dynstat_wvel_min             =  -8.1399733806518E-02
(PID.TID 0000.0001) %MON dynstat_wvel_mean            =   2.1385421296975E-17
(PID.TID 0000.0001) %MON dynstat_wvel_sd              =   2.4393172653258E-02
(PID.TID 0000.0001) %MON dynstat_wvel_del2            =   3.0819041669318E-05
(PID.TID 0000.0001) %MON dynstat_theta_max            =   1.1539439343726E+03
(PID.TID 0000.0001) %MON dynstat_theta_min            =   2.5568590495525E+02
(PID.TID 0000.0001) %MON dynstat_theta_mean           =   3.2788336162374E+02
(PID.TID 0000.0001) %MON dynstat_theta_sd             =   9.0370801687863E+01
(PID.TID 0000.0001) %MON dynstat_theta_del2           =   5.6620815853075E-04
(PID.TID 0000.0001) %MON dynstat_salt_max             =   2.0316639821187E-02
(PID.TID 0000.0001) %MON dynstat_salt_min             =   0.0000000000000E+00
(PID.TID 0000.0001) %MON dynstat_salt_mean            =   1.8179026968498E-03
(PID.TID 0000.0001) %MON dynstat_salt_sd              =   3.8141939664160E-03
(PID.TID 0000.0001) %MON dynstat_salt_del2            =   3.3058720577140E-07
(PID.TID 0000.0001) %MON advcfl_uvel_max              =   2.1718731221243E-02
(PID.TID 0000.0001) %MON advcfl_vvel_max              =   2.1714068575974E-02
(PID.TID 0000.0001) %MON advcfl_wvel_max              =   4.5148969702354E-03
(PID.TID 0000.0001) %MON advcfl_W_hf_max              =   4.9677591981292E-03
(PID.TID 0000.0001) %MON am_eta_mean                  =  -9.2597334882466E+09
(PID.TID 0000.0001) %MON am_uZo_mean                  =   9.2589012634934E+09
(PID.TID 0000.0001) %MON am_tot_mean                  =  -8.3222475315475E+05
(PID.TID 0000.0001) %MON pe_b_mean                    =   8.9636350210531E-02
(PID.TID 0000.0001) %MON ke_max                       =   2.9730348883964E+01
(PID.TID 0000.0001) %MON ke_mean                      =   6.1959924860986E+00
(PID.TID 0000.0001) %MON ke_vol                       =   5.0986421042785E+19
(PID.TID 0000.0001) %MON vort_r_min                   =  -7.5883654543442E-07
(PID.TID 0000.0001) %MON vort_r_max                   =   7.5942395966460E-07
(PID.TID 0000.0001) %MON vort_a_mean                  =  -9.0700141430050E-20
(PID.TID 0000.0001) %MON vort_a_sd                    =   8.4248710422431E-05
(PID.TID 0000.0001) %MON vort_p_mean                  =  -8.8248780521415E-20
(PID.TID 0000.0001) %MON vort_p_sd                    =   8.4209907421712E-05
(PID.TID 0000.0001) %MON surfExpan_theta_mean         =  -1.6392841096976E+00
(PID.TID 0000.0001) %MON surfExpan_salt_mean          =  -1.5177565487374E-04
(PID.TID 0000.0001) %MON surfExpan_Heat_mean          =  -1.4385800419764E+02
(PID.TID 0000.0001) %MON En_Budget_T2PE_mean          =   1.6885227548155E+01
(PID.TID 0000.0001) // =======================================================
(PID.TID 0000.0001) // End MONITOR dynamic field statistics
(PID.TID 0000.0001) // =======================================================
 cg2d: Sum(rhs),rhsMax =   0.00000000000000E+00  2.73865085349827E+03
(PID.TID 0000.0001)      cg2d_init_res =   2.51969945550555E+04
(PID.TID 0000.0001)      cg2d_iters(min,last) =      -1      13
(PID.TID 0000.0001)      cg2d_last_res =   2.43983630428030E-11
(PID.TID 0000.0001) // =======================================================
(PID.TID 0000.0001) // Begin MONITOR dynamic field statistics
(PID.TID 0000.0001) // =======================================================
(PID.TID 0000.0001) %MON time_tsnumber                =                     7
(PID.TID 0000.0001) %MON time_secondsf                =   2.5200000000000E+03
(PID.TID 0000.0001) %MON dynstat_eta_max              =   3.4133433190389E+02
(PID.TID 0000.0001) %MON dynstat_eta_min              =  -2.4185289479364E+02
(PID.TID 0000.0001) %MON dynstat_eta_mean             =   3.2134046016392E-14
(PID.TID 0000.0001) %MON dynstat_eta_sd               =   1.9304469177468E+02
(PID.TID 0000.0001) %MON dynstat_eta_del2             =   2.2786934751328E-01
(PID.TID 0000.0001) %MON dynstat_uvel_max             =   8.8841384465085E+00
(PID.TID 0000.0001) %MON dynstat_uvel_min             =  -8.8893513228961E+00
(PID.TID 0000.0001) %MON dynstat_uvel_mean            =   7.6785640246834E-02
(PID.TID 0000.0001) %MON dynstat_uvel_sd              =   2.8889613079623E+00
(PID.TID 0000.0001) %MON dynstat_uvel_del2            =   6.2430134363972E-04
(PID.TID 0000.0001) %MON dynstat_vvel_max             =   8.8893470858834E+00
(PID.TID 0000.0001) %MON dynstat_vvel_min             =  -8.8861531760895E+00
(PID.TID 0000.0001) %MON dynstat_vvel_mean            =   7.7394606415827E-02
(PID.TID 0000.0001) %MON dynstat_vvel_sd              =   2.8889633644616E+00
(PID.TID 0000.0001) %MON dynstat_vvel_del2            =   6.2442253686594E-04
(PID.TID 0000.0001) %MON dynstat_wvel_max             =   8.7091897997602E-02
(PID.TID 0000.0001) %MON dynstat_wvel_min             =  -9.6482824122130E-02
(PID.TID 0000.0001) %MON dynstat_wvel_mean            =   0.0000000000000E+00
(PID.TID 0000.0001) %MON dynstat_wvel_sd              =   2.8242528501828E-02
(PID.TID 0000.0001) %MON dynstat_wvel_del2            =   3.3862400093773E-05
(PID.TID 0000.0001) %MON dynstat_theta_max            =   1.1540368164894E+03
(PID.TID 0000.0001) %MON dynstat_theta_min            =   2.5580170667400E+02
(PID.TID 0000.0001) %MON dynstat_theta_mean           =   3.2788504788878E+02
(PID.TID 0000.0001) %MON dynstat_theta_sd             =   9.0370416925574E+01
(PID.TID 0000.0001) %MON dynstat_theta_del2           =   5.7138796484676E-04
(PID.TID 0000.0001) %MON dynstat_salt_max             =   2.0316887355023E-02
(PID.TID 0000.0001) %MON dynstat_salt_min             =   0.0000000000000E+00
(PID.TID 0000.0001) %MON dynstat_salt_mean            =   1.8212771132448E-03
(PID.TID 0000.0001) %MON dynstat_salt_sd              =   3.8168667682763E-03
(PID.TID 0000.0001) %MON dynstat_salt_del2            =   3.7231740038125E-07
(PID.TID 0000.0001) %MON advcfl_uvel_max              =   2.5363012145458E-02
(PID.TID 0000.0001) %MON advcfl_vvel_max              =   2.5356303488393E-02
(PID.TID 0000.0001) %MON advcfl_wvel_max              =   4.9313995351555E-03
(PID.TID 0000.0001) %MON advcfl_W_hf_max              =   5.4238414667858E-03
(PID.TID 0000.0001) %MON am_eta_mean                  =  -1.2913921201241E+10
(PID.TID 0000.0001) %MON am_uZo_mean                  =   1.2911431443530E+10
(PID.TID 0000.0001) %MON am_tot_mean                  =  -2.4897577113075E+06
(PID.TID 0000.0001) %MON pe_b_mean                    =   1.5783283722262E-01
(PID.TID 0000.0001) %MON ke_max                       =   4.0168047196893E+01
(PID.TID 0000.0001) %MON ke_mean                      =   8.3520463598779E+00
(PID.TID 0000.0001) %MON ke_vol                       =   5.0986421042785E+19
(PID.TID 0000.0001) %MON vort_r_min                   =  -1.0012672017721E-06
(PID.TID 0000.0001) %MON vort_r_max                   =   1.0020431297997E-06
(PID.TID 0000.0001) %MON vort_a_mean                  =   1.8875434838146E-19
(PID.TID 0000.0001) %MON vort_a_sd                    =   8.4265545511720E-05
(PID.TID 0000.0001) %MON vort_p_mean                  =   1.8630297629657E-19
(PID.TID 0000.0001) %MON vort_p_sd                    =   8.4211403419041E-05
(PID.TID 0000.0001) %MON surfExpan_theta_mean         =  -1.8942500467140E+00
(PID.TID 0000.0001) %MON surfExpan_salt_mean          =  -1.7558221166723E-04
(PID.TID 0000.0001) %MON surfExpan_Heat_mean          =  -1.6627938833184E+02
(PID.TID 0000.0001) %MON En_Budget_T2PE_mean          =   1.9587908703667E+01
(PID.TID 0000.0001) // =======================================================
(PID.TID 0000.0001) // End MONITOR dynamic field statistics
(PID.TID 0000.0001) // =======================================================
 cg2d: Sum(rhs),rhsMax =  -9.31322574615479E-10  3.49116192049601E+03
(PID.TID 0000.0001)      cg2d_init_res =   2.85464493017970E+04
(PID.TID 0000.0001)      cg2d_iters(min,last) =      -1      13
(PID.TID 0000.0001)      cg2d_last_res =   3.47346781637513E-11
(PID.TID 0000.0001) // =======================================================
(PID.TID 0000.0001) // Begin MONITOR dynamic field statistics
(PID.TID 0000.0001) // =======================================================
(PID.TID 0000.0001) %MON time_tsnumber                =                     8
(PID.TID 0000.0001) %MON time_secondsf                =   2.8800000000000E+03
(PID.TID 0000.0001) %MON dynstat_eta_max              =   4.3513486545488E+02
(PID.TID 0000.0001) %MON dynstat_eta_min              =  -3.0947286464685E+02
(PID.TID 0000.0001) %MON dynstat_eta_mean             =  -3.2134046016392E-14
(PID.TID 0000.0001) %MON dynstat_eta_sd               =   2.4693667292702E+02
(PID.TID 0000.0001) %MON dynstat_eta_del2             =   2.5109530129015E-01
(PID.TID 0000.0001) %MON dynstat_uvel_max             =   1.0103751322106E+01
(PID.TID 0000.0001) %MON dynstat_uvel_min             =  -1.0110162597476E+01
(PID.TID 0000.0001) %MON dynstat_uvel_mean            =   9.9981166530109E-02
(PID.TID 0000.0001) %MON dynstat_uvel_sd              =   3.2835659661882E+00
(PID.TID 0000.0001) %MON dynstat_uvel_del2            =   7.0078506870467E-04
(PID.TID 0000.0001) %MON dynstat_vvel_max             =   1.0110220049617E+01
(PID.TID 0000.0001) %MON dynstat_vvel_min             =  -1.0106042564210E+01
(PID.TID 0000.0001) %MON dynstat_vvel_mean            =   1.0079137692484E-01
(PID.TID 0000.0001) %MON dynstat_vvel_sd              =   3.2835675480618E+00
(PID.TID 0000.0001) %MON dynstat_vvel_del2            =   7.0093304571614E-04
(PID.TID 0000.0001) %MON dynstat_wvel_max             =   9.6528256917684E-02
(PID.TID 0000.0001) %MON dynstat_wvel_min             =  -1.1174299893036E-01
(PID.TID 0000.0001) %MON dynstat_wvel_mean            =  -9.4347446898419E-18
(PID.TID 0000.0001) %MON dynstat_wvel_sd              =   3.2043419691846E-02
(PID.TID 0000.0001) %MON dynstat_wvel_del2            =   3.7017256677287E-05
(PID.TID 0000.0001) %MON dynstat_theta_max            =   1.1541409686611E+03
(PID.TID 0000.0001) %MON dynstat_theta_min            =   2.5591464185603E+02
(PID.TID 0000.0001) %MON dynstat_theta_mean           =   3.2788663345947E+02
(PID.TID 0000.0001) %MON dynstat_theta_sd             =   9.0370140725116E+01
(PID.TID 0000.0001) %MON dynstat_theta_del2           =   5.7747503535935E-04
(PID.TID 0000.0001) %MON dynstat_salt_max             =   2.0317135404101E-02
(PID.TID 0000.0001) %MON dynstat_salt_min             =   0.0000000000000E+00
(PID.TID 0000.0001) %MON dynstat_salt_mean            =   1.8246176075751E-03
(PID.TID 0000.0001) %MON dynstat_salt_sd              =   3.8195735804751E-03
(PID.TID 0000.0001) %MON dynstat_salt_del2            =   4.1520972584507E-07
(PID.TID 0000.0001) %MON advcfl_uvel_max              =   2.9013917884413E-02
(PID.TID 0000.0001) %MON advcfl_vvel_max              =   2.9004732411410E-02
(PID.TID 0000.0001) %MON advcfl_wvel_max              =   5.3054030018457E-03
(PID.TID 0000.0001) %MON advcfl_W_hf_max              =   5.8325603758401E-03
(PID.TID 0000.0001) %MON am_eta_mean                  =  -1.7144108543275E+10
(PID.TID 0000.0001) %MON am_uZo_mean                  =   1.7139107038990E+10
(PID.TID 0000.0001) %MON am_tot_mean                  =  -5.0015042849884E+06
(PID.TID 0000.0001) %MON pe_b_mean                    =   2.5825742711625E-01
(PID.TID 0000.0001) %MON ke_max                       =   5.2041423895445E+01
(PID.TID 0000.0001) %MON ke_mean                      =   1.0791888216160E+01
(PID.TID 0000.0001) %MON ke_vol                       =   5.0986421042785E+19
(PID.TID 0000.0001) %MON vort_r_min                   =  -1.2730594717174E-06
(PID.TID 0000.0001) %MON vort_r_max                   =   1.2740011894638E-06
(PID.TID 0000.0001) %MON vort_a_mean                  =  -2.7210042429015E-19
(PID.TID 0000.0001) %MON vort_a_sd                    =   8.4284796712460E-05
(PID.TID 0000.0001) %MON vort_p_mean                  =  -2.7210039173789E-19
(PID.TID 0000.0001) %MON vort_p_sd                    =   8.4212880392926E-05
(PID.TID 0000.0001) %MON surfExpan_theta_mean         =  -2.1418338417786E+00
(PID.TID 0000.0001) %MON surfExpan_salt_mean          =  -1.9879575256938E-04
(PID.TID 0000.0001) %MON surfExpan_Heat_mean          =  -1.8807345233991E+02
(PID.TID 0000.0001) %MON En_Budget_T2PE_mean          =   2.2246140161074E+01
(PID.TID 0000.0001) // =======================================================
(PID.TID 0000.0001) // End MONITOR dynamic field statistics
(PID.TID 0000.0001) // =======================================================
(PID.TID 0000.0001)   Exporting atmospheric fluxes at iter.         8
(PID.TID 0000.0001)   Importing oceanic fields at iteration         8
 cg2d: Sum(rhs),rhsMax =  -2.32830643653870E-09  4.32406140348564E+03
(PID.TID 0000.0001)      cg2d_init_res =   3.18047800249756E+04
(PID.TID 0000.0001)      cg2d_iters(min,last) =      -1      13
(PID.TID 0000.0001)      cg2d_last_res =   4.54507416580976E-11
(PID.TID 0000.0001) // =======================================================
(PID.TID 0000.0001) // Begin MONITOR dynamic field statistics
(PID.TID 0000.0001) // =======================================================
(PID.TID 0000.0001) %MON time_tsnumber                =                     9
(PID.TID 0000.0001) %MON time_secondsf                =   3.2400000000000E+03
(PID.TID 0000.0001) %MON dynstat_eta_max              =   5.3896133141543E+02
(PID.TID 0000.0001) %MON dynstat_eta_min              =  -3.8481470055144E+02
(PID.TID 0000.0001) %MON dynstat_eta_mean             =   3.2134046016392E-14
(PID.TID 0000.0001) %MON dynstat_eta_sd               =   3.0698593199688E+02
(PID.TID 0000.0001) %MON dynstat_eta_del2             =   2.7455821340732E-01
(PID.TID 0000.0001) %MON dynstat_uvel_max             =   1.1305569610348E+01
(PID.TID 0000.0001) %MON dynstat_uvel_min             =  -1.1313279114488E+01
(PID.TID 0000.0001) %MON dynstat_uvel_mean            =   1.2595256480525E-01
(PID.TID 0000.0001) %MON dynstat_uvel_sd              =   3.6717462284158E+00
(PID.TID 0000.0001) %MON dynstat_uvel_del2            =   7.7545322817514E-04
(PID.TID 0000.0001) %MON dynstat_vvel_max             =   1.1313416227764E+01
(PID.TID 0000.0001) %MON dynstat_vvel_min             =  -1.1308133834405E+01
(PID.TID 0000.0001) %MON dynstat_vvel_mean            =   1.2699191764921E-01
(PID.TID 0000.0001) %MON dynstat_vvel_sd              =   3.6717467787937E+00
(PID.TID 0000.0001) %MON dynstat_vvel_del2            =   7.7563552491957E-04
(PID.TID 0000.0001) %MON dynstat_wvel_max             =   1.0610096519089E-01
(PID.TID 0000.0001) %MON dynstat_wvel_min             =  -1.2690572862145E-01
(PID.TID 0000.0001) %MON dynstat_wvel_mean            =   1.3082845969914E-16
(PID.TID 0000.0001) %MON dynstat_wvel_sd              =   3.5794109069371E-02
(PID.TID 0000.0001) %MON dynstat_wvel_del2            =   4.0246877896785E-05
(PID.TID 0000.0001) %MON dynstat_theta_max            =   1.1542547058855E+03
(PID.TID 0000.0001) %MON dynstat_theta_min            =   2.5602625367067E+02
(PID.TID 0000.0001) %MON dynstat_theta_mean           =   3.2788808776304E+02
(PID.TID 0000.0001) %MON dynstat_theta_sd             =   9.0369997660322E+01
(PID.TID 0000.0001) %MON dynstat_theta_del2           =   5.8320916962615E-04
(PID.TID 0000.0001) %MON dynstat_salt_max             =   2.0317384000815E-02
(PID.TID 0000.0001) %MON dynstat_salt_min             =   0.0000000000000E+00
(PID.TID 0000.0001) %MON dynstat_salt_mean            =   1.8279314656146E-03
(PID.TID 0000.0001) %MON dynstat_salt_sd              =   3.8223013565495E-03
(PID.TID 0000.0001) %MON dynstat_salt_del2            =   4.5661485824556E-07
(PID.TID 0000.0001) %MON advcfl_uvel_max              =   3.2656031345877E-02
(PID.TID 0000.0001) %MON advcfl_vvel_max              =   3.2644695652531E-02
(PID.TID 0000.0001) %MON advcfl_wvel_max              =   5.6436685317807E-03
(PID.TID 0000.0001) %MON advcfl_W_hf_max              =   6.2012573860843E-03
(PID.TID 0000.0001) %MON am_eta_mean                  =  -2.1936407408544E+10
(PID.TID 0000.0001) %MON am_uZo_mean                  =   2.1927916961861E+10
(PID.TID 0000.0001) %MON am_tot_mean                  =  -8.4904466834335E+06
(PID.TID 0000.0001) %MON pe_b_mean                    =   3.9913386989806E-01
(PID.TID 0000.0001) %MON ke_max                       =   6.5285508959139E+01
(PID.TID 0000.0001) %MON ke_mean                      =   1.3497717884601E+01
(PID.TID 0000.0001) %MON ke_vol                       =   5.0986421042785E+19
(PID.TID 0000.0001) %MON vort_r_min                   =  -1.5725913151816E-06
(PID.TID 0000.0001) %MON vort_r_max                   =   1.5736675707140E-06
(PID.TID 0000.0001) %MON vort_a_mean                  =   5.1478458649488E-20
(PID.TID 0000.0001) %MON vort_a_sd                    =   8.4306412721411E-05
(PID.TID 0000.0001) %MON vort_p_mean                  =   5.1478450856830E-20
(PID.TID 0000.0001) %MON vort_p_sd                    =   8.4214338329078E-05
(PID.TID 0000.0001) %MON surfExpan_theta_mean         =  -2.3812971398346E+00
(PID.TID 0000.0001) %MON surfExpan_salt_mean          =  -2.2135612682435E-04
(PID.TID 0000.0001) %MON surfExpan_Heat_mean          =  -2.0917747389042E+02
(PID.TID 0000.0001) %MON En_Budget_T2PE_mean          =   2.4855686946140E+01
(PID.TID 0000.0001) // =======================================================
(PID.TID 0000.0001) // End MONITOR dynamic field statistics
(PID.TID 0000.0001) // =======================================================
 cg2d: Sum(rhs),rhsMax =  -1.39698386192322E-09  5.23333043497028E+03
(PID.TID 0000.0001)      cg2d_init_res =   3.49612754527010E+04
(PID.TID 0000.0001)      cg2d_iters(min,last) =      -1      13
(PID.TID 0000.0001)      cg2d_last_res =   5.65769394338140E-11
(PID.TID 0000.0001) // =======================================================
(PID.TID 0000.0001) // Begin MONITOR dynamic field statistics
(PID.TID 0000.0001) // =======================================================
(PID.TID 0000.0001) %MON time_tsnumber                =                    10
(PID.TID 0000.0001) %MON time_secondsf                =   3.6000000000000E+03
(PID.TID 0000.0001) %MON dynstat_eta_max              =   6.5231562032108E+02
(PID.TID 0000.0001) %MON dynstat_eta_min              =  -4.6764122867765E+02
(PID.TID 0000.0001) %MON dynstat_eta_mean             =  -6.4268092032785E-14
(PID.TID 0000.0001) %MON dynstat_eta_sd               =   3.7300280593094E+02
(PID.TID 0000.0001) %MON dynstat_eta_del2             =   2.9875888176850E-01
(PID.TID 0000.0001) %MON dynstat_uvel_max             =   1.2488107412560E+01
(PID.TID 0000.0001) %MON dynstat_uvel_min             =  -1.2497780264402E+01
(PID.TID 0000.0001) %MON dynstat_uvel_mean            =   1.5460662070418E-01
(PID.TID 0000.0001) %MON dynstat_uvel_sd              =   4.0529330443846E+00
(PID.TID 0000.0001) %MON dynstat_uvel_del2            =   8.4832240529409E-04
(PID.TID 0000.0001) %MON dynstat_vvel_max             =   1.2497456363377E+01
(PID.TID 0000.0001) %MON dynstat_vvel_min             =  -1.2491098765597E+01
(PID.TID 0000.0001) %MON dynstat_vvel_mean            =   1.5590270151683E-01
(PID.TID 0000.0001) %MON dynstat_vvel_sd              =   4.0529319489845E+00
(PID.TID 0000.0001) %MON dynstat_vvel_del2            =   8.4854580784364E-04
(PID.TID 0000.0001) %MON dynstat_wvel_max             =   1.1628824475531E-01
(PID.TID 0000.0001) %MON dynstat_wvel_min             =  -1.4180935381436E-01
(PID.TID 0000.0001) %MON dynstat_wvel_mean            =  -4.5286774511241E-17
(PID.TID 0000.0001) %MON dynstat_wvel_sd              =   3.9492121726307E-02
(PID.TID 0000.0001) %MON dynstat_wvel_del2            =   4.3505679908366E-05
(PID.TID 0000.0001) %MON dynstat_theta_max            =   1.1543804285524E+03
(PID.TID 0000.0001) %MON dynstat_theta_min            =   2.5613636040538E+02
(PID.TID 0000.0001) %MON dynstat_theta_mean           =   3.2788941306054E+02
(PID.TID 0000.0001) %MON dynstat_theta_sd             =   9.0369989217410E+01
(PID.TID 0000.0001) %MON dynstat_theta_del2           =   5.8781364365389E-04
(PID.TID 0000.0001) %MON dynstat_salt_max             =   2.0317633217302E-02
(PID.TID 0000.0001) %MON dynstat_salt_min             =   0.0000000000000E+00
(PID.TID 0000.0001) %MON dynstat_salt_mean            =   1.8312154566129E-03
(PID.TID 0000.0001) %MON dynstat_salt_sd              =   3.8250543614299E-03
(PID.TID 0000.0001) %MON dynstat_salt_del2            =   4.9556452794671E-07
(PID.TID 0000.0001) %MON advcfl_uvel_max              =   3.6293733116453E-02
(PID.TID 0000.0001) %MON advcfl_vvel_max              =   3.6280755395846E-02
(PID.TID 0000.0001) %MON advcfl_wvel_max              =   5.9504804710107E-03
(PID.TID 0000.0001) %MON advcfl_W_hf_max              =   6.5346069659638E-03
(PID.TID 0000.0001) %MON am_eta_mean                  =  -2.7275358436904E+10
(PID.TID 0000.0001) %MON am_uZo_mean                  =   2.7262286935770E+10
(PID.TID 0000.0001) %MON am_tot_mean                  =  -1.3071501134689E+07
(PID.TID 0000.0001) %MON pe_b_mean                    =   5.8925846871587E-01
(PID.TID 0000.0001) %MON ke_max                       =   7.9829719483461E+01
(PID.TID 0000.0001) %MON ke_mean                      =   1.6450366252440E+01
(PID.TID 0000.0001) %MON ke_vol                       =   5.0986421042785E+19
(PID.TID 0000.0001) %MON vort_r_min                   =  -1.8982188818666E-06
(PID.TID 0000.0001) %MON vort_r_max                   =   1.8993727646240E-06
(PID.TID 0000.0001) %MON vort_a_mean                  =  -1.4953266560089E-19
(PID.TID 0000.0001) %MON vort_a_sd                    =   8.4330336887917E-05
(PID.TID 0000.0001) %MON vort_p_mean                  =  -1.5198399250162E-19
(PID.TID 0000.0001) %MON vort_p_sd                    =   8.4215777894816E-05
(PID.TID 0000.0001) %MON surfExpan_theta_mean         =  -2.6119286030420E+00
(PID.TID 0000.0001) %MON surfExpan_salt_mean          =  -2.4320769462005E-04
(PID.TID 0000.0001) %MON surfExpan_Heat_mean          =  -2.2953072950059E+02
(PID.TID 0000.0001) %MON En_Budget_T2PE_mean          =   2.7412400866973E+01
(PID.TID 0000.0001) // =======================================================
(PID.TID 0000.0001) // End MONITOR dynamic field statistics
(PID.TID 0000.0001) // =======================================================
 cg2d: Sum(rhs),rhsMax =  -4.65661287307739E-10  6.21473320002826E+03
(PID.TID 0000.0001)      cg2d_init_res =   3.80061861117455E+04
(PID.TID 0000.0001)      cg2d_iters(min,last) =      -1      13
(PID.TID 0000.0001)      cg2d_last_res =   6.79205893398721E-11
(PID.TID 0000.0001) // =======================================================
(PID.TID 0000.0001) // Begin MONITOR dynamic field statistics
(PID.TID 0000.0001) // =======================================================
(PID.TID 0000.0001) %MON time_tsnumber                =                    11
(PID.TID 0000.0001) %MON time_secondsf                =   3.9600000000000E+03
(PID.TID 0000.0001) %MON dynstat_eta_max              =   7.7467383001526E+02
(PID.TID 0000.0001) %MON dynstat_eta_min              =  -5.5769460254920E+02
(PID.TID 0000.0001) %MON dynstat_eta_mean             =  -1.1782483539344E-13
(PID.TID 0000.0001) %MON dynstat_eta_sd               =   4.4477837559137E+02
(PID.TID 0000.0001) %MON dynstat_eta_del2             =   3.2401044597067E-01
(PID.TID 0000.0001) %MON dynstat_uvel_max             =   1.3666917229879E+01
(PID.TID 0000.0001) %MON dynstat_uvel_min             =  -1.3675889905499E+01
(PID.TID 0000.0001) %MON dynstat_uvel_mean            =   1.8584203403377E-01
(PID.TID 0000.0001) %MON dynstat_uvel_sd              =   4.4265860269589E+00
(PID.TID 0000.0001) %MON dynstat_uvel_del2            =   9.1928174223271E-04
(PID.TID 0000.0001) %MON dynstat_vvel_max             =   1.3675490585047E+01
(PID.TID 0000.0001) %MON dynstat_vvel_min             =  -1.3667993255543E+01
(PID.TID 0000.0001) %MON dynstat_vvel_mean            =   1.8742208750110E-01
(PID.TID 0000.0001) %MON dynstat_vvel_sd              =   4.4265818348177E+00
(PID.TID 0000.0001) %MON dynstat_vvel_del2            =   9.1954644591548E-04
(PID.TID 0000.0001) %MON dynstat_wvel_max             =   1.2618243161707E-01
(PID.TID 0000.0001) %MON dynstat_wvel_min             =  -1.5634828293914E-01
(PID.TID 0000.0001) %MON dynstat_wvel_mean            =   2.0127455338329E-17
(PID.TID 0000.0001) %MON dynstat_wvel_sd              =   4.3134262486716E-02
(PID.TID 0000.0001) %MON dynstat_wvel_del2            =   4.6760015092709E-05
(PID.TID 0000.0001) %MON dynstat_theta_max            =   1.1545463485910E+03
(PID.TID 0000.0001) %MON dynstat_theta_min            =   2.5624481161692E+02
(PID.TID 0000.0001) %MON dynstat_theta_mean           =   3.2789058237350E+02
(PID.TID 0000.0001) %MON dynstat_theta_sd             =   9.0370135927553E+01
(PID.TID 0000.0001) %MON dynstat_theta_del2           =   5.9161643211824E-04
(PID.TID 0000.0001) %MON dynstat_salt_max             =   2.0317883103084E-02
(PID.TID 0000.0001) %MON dynstat_salt_min             =   0.0000000000000E+00
(PID.TID 0000.0001) %MON dynstat_salt_mean            =   1.8344768301247E-03
(PID.TID 0000.0001) %MON dynstat_salt_sd              =   3.8278340678419E-03
(PID.TID 0000.0001) %MON dynstat_salt_del2            =   5.3240854534297E-07
(PID.TID 0000.0001) %MON advcfl_uvel_max              =   3.9897883909005E-02
(PID.TID 0000.0001) %MON advcfl_vvel_max              =   3.9884246441050E-02
(PID.TID 0000.0001) %MON advcfl_wvel_max              =   6.2325689280169E-03
(PID.TID 0000.0001) %MON advcfl_W_hf_max              =   6.8400524788594E-03
(PID.TID 0000.0001) %MON am_eta_mean                  =  -3.3143975582580E+10
(PID.TID 0000.0001) %MON am_uZo_mean                  =   3.3125127940345E+10
(PID.TID 0000.0001) %MON am_tot_mean                  =  -1.8847642235363E+07
(PID.TID 0000.0001) %MON pe_b_mean                    =   8.3785518958381E-01
(PID.TID 0000.0001) %MON ke_max                       =   9.5598097420995E+01
(PID.TID 0000.0001) %MON ke_mean                      =   1.9629477447460E+01
(PID.TID 0000.0001) %MON ke_vol                       =   5.0986421042785E+19
(PID.TID 0000.0001) %MON vort_r_min                   =  -2.2483182284255E-06
(PID.TID 0000.0001) %MON vort_r_max                   =   2.2494878763881E-06
(PID.TID 0000.0001) %MON vort_a_mean                  =  -2.4023280703094E-19
(PID.TID 0000.0001) %MON vort_a_sd                    =   8.4356507056188E-05
(PID.TID 0000.0001) %MON vort_p_mean                  =  -2.4023275328806E-19
(PID.TID 0000.0001) %MON vort_p_sd                    =   8.4217200228069E-05
(PID.TID 0000.0001) %MON surfExpan_theta_mean         =  -2.8330613156724E+00
(PID.TID 0000.0001) %MON surfExpan_salt_mean          =  -2.6429438225739E-04
(PID.TID 0000.0001) %MON surfExpan_Heat_mean          =  -2.4907589079831E+02
(PID.TID 0000.0001) %MON En_Budget_T2PE_mean          =   2.9912469424504E+01
(PID.TID 0000.0001) // =======================================================
(PID.TID 0000.0001) // End MONITOR dynamic field statistics
(PID.TID 0000.0001) // =======================================================
 cg2d: Sum(rhs),rhsMax =   0.00000000000000E+00  7.26386812201724E+03
(PID.TID 0000.0001)      cg2d_init_res =   4.09310483498717E+04
(PID.TID 0000.0001)      cg2d_iters(min,last) =      -1      13
(PID.TID 0000.0001)      cg2d_last_res =   7.86758295111989E-11
(PID.TID 0000.0001) // =======================================================
(PID.TID 0000.0001) // Begin MONITOR dynamic field statistics
(PID.TID 0000.0001) // =======================================================
(PID.TID 0000.0001) %MON time_tsnumber                =                    12
(PID.TID 0000.0001) %MON time_secondsf                =   4.3200000000000E+03
(PID.TID 0000.0001) %MON dynstat_eta_max              =   9.0549297153726E+02
(PID.TID 0000.0001) %MON dynstat_eta_min              =  -6.5469591179727E+02
(PID.TID 0000.0001) %MON dynstat_eta_mean             =  -4.2845394688523E-14
(PID.TID 0000.0001) %MON dynstat_eta_sd               =   5.2208624840615E+02
(PID.TID 0000.0001) %MON dynstat_eta_del2             =   3.5018918249284E-01
(PID.TID 0000.0001) %MON dynstat_uvel_max             =   1.4836276535136E+01
(PID.TID 0000.0001) %MON dynstat_uvel_min             =  -1.4846676614431E+01
(PID.TID 0000.0001) %MON dynstat_uvel_mean            =   2.1954995081959E-01
(PID.TID 0000.0001) %MON dynstat_uvel_sd              =   4.7921944152262E+00
(PID.TID 0000.0001) %MON dynstat_uvel_del2            =   9.8813723133550E-04
(PID.TID 0000.0001) %MON dynstat_vvel_max             =   1.4846620285820E+01
(PID.TID 0000.0001) %MON dynstat_vvel_min             =  -1.4837498238637E+01
(PID.TID 0000.0001) %MON dynstat_vvel_mean            =   2.2144079354083E-01
(PID.TID 0000.0001) %MON dynstat_vvel_sd              =   4.7921849769116E+00
(PID.TID 0000.0001) %MON dynstat_vvel_del2            =   9.8844407573645E-04
(PID.TID 0000.0001) %MON dynstat_wvel_max             =   1.3619753186807E-01
(PID.TID 0000.0001) %MON dynstat_wvel_min             =  -1.7044829461489E-01
(PID.TID 0000.0001) %MON dynstat_wvel_mean            =  -2.0127455338329E-17
(PID.TID 0000.0001) %MON dynstat_wvel_sd              =   4.6717470043872E-02
(PID.TID 0000.0001) %MON dynstat_wvel_del2            =   4.9997960271740E-05
(PID.TID 0000.0001) %MON dynstat_theta_max            =   1.1547125507877E+03
(PID.TID 0000.0001) %MON dynstat_theta_min            =   2.5635148345650E+02
(PID.TID 0000.0001) %MON dynstat_theta_mean           =   3.2789156762999E+02
(PID.TID 0000.0001) %MON dynstat_theta_sd             =   9.0370458356072E+01
(PID.TID 0000.0001) %MON dynstat_theta_del2           =   5.9569907160748E-04
(PID.TID 0000.0001) %MON dynstat_salt_max             =   2.0318133706291E-02
(PID.TID 0000.0001) %MON dynstat_salt_min             =   0.0000000000000E+00
(PID.TID 0000.0001) %MON dynstat_salt_mean            =   1.8377242834530E-03
(PID.TID 0000.0001) %MON dynstat_salt_sd              =   3.8306476281945E-03
(PID.TID 0000.0001) %MON dynstat_salt_del2            =   5.6881400251078E-07
(PID.TID 0000.0001) %MON advcfl_uvel_max              =   4.3496637363982E-02
(PID.TID 0000.0001) %MON advcfl_vvel_max              =   4.3481718987241E-02
(PID.TID 0000.0001) %MON advcfl_wvel_max              =   6.5697415483255E-03
(PID.TID 0000.0001) %MON advcfl_W_hf_max              =   7.1488677783052E-03
(PID.TID 0000.0001) %MON am_eta_mean                  =  -3.9523792392959E+10
(PID.TID 0000.0001) %MON am_uZo_mean                  =   3.9497882731587E+10
(PID.TID 0000.0001) %MON am_tot_mean                  =  -2.5909661371819E+07
(PID.TID 0000.0001) %MON pe_b_mean                    =   1.1544261174101E+00
(PID.TID 0000.0001) %MON ke_max                       =   1.1250917947664E+02
(PID.TID 0000.0001) %MON ke_mean                      =   2.3013701186120E+01
(PID.TID 0000.0001) %MON ke_vol                       =   5.0986421042785E+19
(PID.TID 0000.0001) %MON vort_r_min                   =  -2.6213292330033E-06
(PID.TID 0000.0001) %MON vort_r_max                   =   2.6224443503577E-06
(PID.TID 0000.0001) %MON vort_a_mean                  =  -3.6770327606777E-20
(PID.TID 0000.0001) %MON vort_a_sd                    =   8.4384856019060E-05
(PID.TID 0000.0001) %MON vort_p_mean                  =  -3.9221672402956E-20
(PID.TID 0000.0001) %MON vort_p_sd                    =   8.4218607331611E-05
(PID.TID 0000.0001) %MON surfExpan_theta_mean         =  -3.0440701460798E+00
(PID.TID 0000.0001) %MON surfExpan_salt_mean          =  -2.8456140521885E-04
(PID.TID 0000.0001) %MON surfExpan_Heat_mean          =  -2.6775884938316E+02
(PID.TID 0000.0001) %MON En_Budget_T2PE_mean          =   3.2352299880625E+01
(PID.TID 0000.0001) // =======================================================
(PID.TID 0000.0001) // End MONITOR dynamic field statistics
(PID.TID 0000.0001) // =======================================================
 cg2d: Sum(rhs),rhsMax =  -1.11758708953857E-08  8.37623456053580E+03
(PID.TID 0000.0001)      cg2d_init_res =   4.37282617396505E+04
(PID.TID 0000.0001)      cg2d_iters(min,last) =      -1      13
(PID.TID 0000.0001)      cg2d_last_res =   8.84471636906361E-11
(PID.TID 0000.0001) // =======================================================
(PID.TID 0000.0001) // Begin MONITOR dynamic field statistics
(PID.TID 0000.0001) // =======================================================
(PID.TID 0000.0001) %MON time_tsnumber                =                    13
(PID.TID 0000.0001) %MON time_secondsf                =   4.6800000000000E+03
(PID.TID 0000.0001) %MON dynstat_eta_max              =   1.0442195238724E+03
(PID.TID 0000.0001) %MON dynstat_eta_min              =  -7.5834481740093E+02
(PID.TID 0000.0001) %MON dynstat_eta_mean             =   3.4276315750819E-13
(PID.TID 0000.0001) %MON dynstat_eta_sd               =   6.0468437589106E+02
(PID.TID 0000.0001) %MON dynstat_eta_del2             =   3.7690061008870E-01
(PID.TID 0000.0001) %MON dynstat_uvel_max             =   1.5983512850934E+01
(PID.TID 0000.0001) %MON dynstat_uvel_min             =  -1.5995528380127E+01
(PID.TID 0000.0001) %MON dynstat_uvel_mean            =   2.5561448719177E-01
(PID.TID 0000.0001) %MON dynstat_uvel_sd              =   5.1492803483868E+00
(PID.TID 0000.0001) %MON dynstat_uvel_del2            =   1.0546900459257E-03
(PID.TID 0000.0001) %MON dynstat_vvel_max             =   1.5995780431095E+01
(PID.TID 0000.0001) %MON dynstat_vvel_min             =  -1.5984845951389E+01
(PID.TID 0000.0001) %MON dynstat_vvel_mean            =   2.5784240089748E-01
(PID.TID 0000.0001) %MON dynstat_vvel_sd              =   5.1492630627508E+00
(PID.TID 0000.0001) %MON dynstat_vvel_del2            =   1.0550326102256E-03
(PID.TID 0000.0001) %MON dynstat_wvel_max             =   1.4672794073707E-01
(PID.TID 0000.0001) %MON dynstat_wvel_min             =  -1.8403198202476E-01
(PID.TID 0000.0001) %MON dynstat_wvel_mean            =  -1.0315320860894E-16
(PID.TID 0000.0001) %MON dynstat_wvel_sd              =   5.0238651335374E-02
(PID.TID 0000.0001) %MON dynstat_wvel_del2            =   5.3213489666336E-05
(PID.TID 0000.0001) %MON dynstat_theta_max            =   1.1548773534944E+03
(PID.TID 0000.0001) %MON dynstat_theta_min            =   2.5645627490466E+02
(PID.TID 0000.0001) %MON dynstat_theta_mean           =   3.2789236877935E+02
(PID.TID 0000.0001) %MON dynstat_theta_sd             =   9.0370957209245E+01
(PID.TID 0000.0001) %MON dynstat_theta_del2           =   6.0097504792135E-04
(PID.TID 0000.0001) %MON dynstat_salt_max             =   2.0318385074107E-02
(PID.TID 0000.0001) %MON dynstat_salt_min             =   0.0000000000000E+00
(PID.TID 0000.0001) %MON dynstat_salt_mean            =   1.8409560680018E-03
(PID.TID 0000.0001) %MON dynstat_salt_sd              =   3.8334848135495E-03
(PID.TID 0000.0001) %MON dynstat_salt_del2            =   6.0308355526722E-07
(PID.TID 0000.0001) %MON advcfl_uvel_max              =   4.7062509216845E-02
(PID.TID 0000.0001) %MON advcfl_vvel_max              =   4.7047005979209E-02
(PID.TID 0000.0001) %MON advcfl_wvel_max              =   7.0933097996695E-03
(PID.TID 0000.0001) %MON advcfl_W_hf_max              =   7.5219158242385E-03
(PID.TID 0000.0001) %MON am_eta_mean                  =  -4.6394913787651E+10
(PID.TID 0000.0001) %MON am_uZo_mean                  =   4.6360579315195E+10
(PID.TID 0000.0001) %MON am_tot_mean                  =  -3.4334472456375E+07
(PID.TID 0000.0001) %MON pe_b_mean                    =   1.5485995534891E+00
(PID.TID 0000.0001) %MON ke_max                       =   1.3047619649072E+02
(PID.TID 0000.0001) %MON ke_mean                      =   2.6580909832750E+01
(PID.TID 0000.0001) %MON ke_vol                       =   5.0986421042785E+19
(PID.TID 0000.0001) %MON vort_r_min                   =  -3.0157522511162E-06
(PID.TID 0000.0001) %MON vort_r_max                   =   3.0167442729486E-06
(PID.TID 0000.0001) %MON vort_a_mean                  =   4.9027103475703E-21
(PID.TID 0000.0001) %MON vort_a_sd                    =   8.4415311088129E-05
(PID.TID 0000.0001) %MON vort_p_mean                  =   9.8054176674407E-21
(PID.TID 0000.0001) %MON vort_p_sd                    =   8.4220001562831E-05
(PID.TID 0000.0001) %MON surfExpan_theta_mean         =  -3.2443635758556E+00
(PID.TID 0000.0001) %MON surfExpan_salt_mean          =  -3.0395884324507E-04
(PID.TID 0000.0001) %MON surfExpan_Heat_mean          =  -2.8552795493816E+02
(PID.TID 0000.0001) %MON En_Budget_T2PE_mean          =   3.4728431067342E+01
(PID.TID 0000.0001) // =======================================================
(PID.TID 0000.0001) // End MONITOR dynamic field statistics
(PID.TID 0000.0001) // =======================================================
 cg2d: Sum(rhs),rhsMax =   1.95577740669250E-08  9.54731640758146E+03
(PID.TID 0000.0001)      cg2d_init_res =   4.63906135669066E+04
(PID.TID 0000.0001)      cg2d_iters(min,last) =      -1      13
(PID.TID 0000.0001)      cg2d_last_res =   9.70781699587592E-11
(PID.TID 0000.0001) // =======================================================
(PID.TID 0000.0001) // Begin MONITOR dynamic field statistics
(PID.TID 0000.0001) // =======================================================
(PID.TID 0000.0001) %MON time_tsnumber                =                    14
(PID.TID 0000.0001) %MON time_secondsf                =   5.0400000000000E+03
(PID.TID 0000.0001) %MON dynstat_eta_max              =   1.1902999120710E+03
(PID.TID 0000.0001) %MON dynstat_eta_min              =  -8.6832117893064E+02
(PID.TID 0000.0001) %MON dynstat_eta_mean             =  -2.1422697344262E-13
(PID.TID 0000.0001) %MON dynstat_eta_sd               =   6.9231644519323E+02
(PID.TID 0000.0001) %MON dynstat_eta_del2             =   4.0368612013509E-01
(PID.TID 0000.0001) %MON dynstat_uvel_max             =   1.7115026746964E+01
(PID.TID 0000.0001) %MON dynstat_uvel_min             =  -1.7129196207056E+01
(PID.TID 0000.0001) %MON dynstat_uvel_mean            =   2.9391323830861E-01
(PID.TID 0000.0001) %MON dynstat_uvel_sd              =   5.4973997857925E+00
(PID.TID 0000.0001) %MON dynstat_uvel_del2            =   1.1187890455512E-03
(PID.TID 0000.0001) %MON dynstat_vvel_max             =   1.7128466662369E+01
(PID.TID 0000.0001) %MON dynstat_vvel_min             =  -1.7116127313848E+01
(PID.TID 0000.0001) %MON dynstat_vvel_mean            =   2.9650385613372E-01
(PID.TID 0000.0001) %MON dynstat_vvel_sd              =   5.4973712405407E+00
(PID.TID 0000.0001) %MON dynstat_vvel_del2            =   1.1191681190507E-03
(PID.TID 0000.0001) %MON dynstat_wvel_max             =   1.5680666697860E-01
(PID.TID 0000.0001) %MON dynstat_wvel_min             =  -1.9700910117284E-01
(PID.TID 0000.0001) %MON dynstat_wvel_mean            =  -1.3082845969914E-16
(PID.TID 0000.0001) %MON dynstat_wvel_sd              =   5.3694345606150E-02
(PID.TID 0000.0001) %MON dynstat_wvel_del2            =   5.6398301779757E-05
(PID.TID 0000.0001) %MON dynstat_theta_max            =   1.1550529052425E+03
(PID.TID 0000.0001) %MON dynstat_theta_min            =   2.5655910449645E+02
(PID.TID 0000.0001) %MON dynstat_theta_mean           =   3.2789298561844E+02
(PID.TID 0000.0001) %MON dynstat_theta_sd             =   9.0371632562526E+01
(PID.TID 0000.0001) %MON dynstat_theta_del2           =   6.0792378166023E-04
(PID.TID 0000.0001) %MON dynstat_salt_max             =   2.0318637253366E-02
(PID.TID 0000.0001) %MON dynstat_salt_min             =   0.0000000000000E+00
(PID.TID 0000.0001) %MON dynstat_salt_mean            =   1.8441725232323E-03
(PID.TID 0000.0001) %MON dynstat_salt_sd              =   3.8363557627783E-03
(PID.TID 0000.0001) %MON dynstat_salt_del2            =   6.3631529665723E-07
(PID.TID 0000.0001) %MON advcfl_uvel_max              =   5.0578278214375E-02
(PID.TID 0000.0001) %MON advcfl_vvel_max              =   5.0561287857960E-02
(PID.TID 0000.0001) %MON advcfl_wvel_max              =   7.5934985462764E-03
(PID.TID 0000.0001) %MON advcfl_W_hf_max              =   8.0034979968998E-03
(PID.TID 0000.0001) %MON am_eta_mean                  =  -5.3736071606813E+10
(PID.TID 0000.0001) %MON am_uZo_mean                  =   5.3691886241371E+10
(PID.TID 0000.0001) %MON am_tot_mean                  =  -4.4185365442467E+07
(PID.TID 0000.0001) %MON pe_b_mean                    =   2.0299761292339E+00
(PID.TID 0000.0001) %MON ke_max                       =   1.4940760961732E+02
(PID.TID 0000.0001) %MON ke_mean                      =   3.0308397244787E+01
(PID.TID 0000.0001) %MON ke_vol                       =   5.0986421042785E+19
(PID.TID 0000.0001) %MON vort_r_min                   =  -3.4301520819159E-06
(PID.TID 0000.0001) %MON vort_r_max                   =   3.4309581546438E-06
(PID.TID 0000.0001) %MON vort_a_mean                  =   1.9610841390281E-20
(PID.TID 0000.0001) %MON vort_a_sd                    =   8.4447794499775E-05
(PID.TID 0000.0001) %MON vort_p_mean                  =   1.7159480102182E-20
(PID.TID 0000.0001) %MON vort_p_sd                    =   8.4221385942125E-05
(PID.TID 0000.0001) %MON surfExpan_theta_mean         =  -3.4333916769444E+00
(PID.TID 0000.0001) %MON surfExpan_salt_mean          =  -3.2243937194069E-04
(PID.TID 0000.0001) %MON surfExpan_Heat_mean          =  -3.0233475250136E+02
(PID.TID 0000.0001) %MON En_Budget_T2PE_mean          =   3.7037633582940E+01
(PID.TID 0000.0001) // =======================================================
(PID.TID 0000.0001) // End MONITOR dynamic field statistics
(PID.TID 0000.0001) // =======================================================
 cg2d: Sum(rhs),rhsMax =   1.02445483207703E-08  1.07726815773630E+04
(PID.TID 0000.0001)      cg2d_init_res =   4.89110935471800E+04
(PID.TID 0000.0001)      cg2d_iters(min,last) =      -1      13
(PID.TID 0000.0001)      cg2d_last_res =   1.04578256704216E-10
(PID.TID 0000.0001) // =======================================================
(PID.TID 0000.0001) // Begin MONITOR dynamic field statistics
(PID.TID 0000.0001) // =======================================================
(PID.TID 0000.0001) %MON time_tsnumber                =                    15
(PID.TID 0000.0001) %MON time_secondsf                =   5.4000000000000E+03
(PID.TID 0000.0001) %MON dynstat_eta_max              =   1.3431925963070E+03
(PID.TID 0000.0001) %MON dynstat_eta_min              =  -9.8427905248926E+02
(PID.TID 0000.0001) %MON dynstat_eta_mean             =  -1.9280427609835E-13
(PID.TID 0000.0001) %MON dynstat_eta_sd               =   7.8471288035609E+02
(PID.TID 0000.0001) %MON dynstat_eta_del2             =   4.3017297221599E-01
(PID.TID 0000.0001) %MON dynstat_uvel_max             =   1.8221657930420E+01
(PID.TID 0000.0001) %MON dynstat_uvel_min             =  -1.8237459891596E+01
(PID.TID 0000.0001) %MON dynstat_uvel_mean            =   3.3431778892327E-01
(PID.TID 0000.0001) %MON dynstat_uvel_sd              =   5.8361437867076E+00
(PID.TID 0000.0001) %MON dynstat_uvel_del2            =   1.1803528727809E-03
(PID.TID 0000.0001) %MON dynstat_vvel_max             =   1.8237269950800E+01
(PID.TID 0000.0001) %MON dynstat_vvel_min             =  -1.8222759099906E+01
(PID.TID 0000.0001) %MON dynstat_vvel_mean            =   3.3729594377929E-01
(PID.TID 0000.0001) %MON dynstat_vvel_sd              =   5.8360998742070E+00
(PID.TID 0000.0001) %MON dynstat_vvel_del2            =   1.1807728763182E-03
(PID.TID 0000.0001) %MON dynstat_wvel_max             =   1.6749569648921E-01
(PID.TID 0000.0001) %MON dynstat_wvel_min             =  -2.0928084710847E-01
(PID.TID 0000.0001) %MON dynstat_wvel_mean            =  -1.3837625545102E-16
(PID.TID 0000.0001) %MON dynstat_wvel_sd              =   5.7080831730178E-02
(PID.TID 0000.0001) %MON dynstat_wvel_del2            =   5.9534076527862E-05
(PID.TID 0000.0001) %MON dynstat_theta_max            =   1.1552134446275E+03
(PID.TID 0000.0001) %MON dynstat_theta_min            =   2.5665990741660E+02
(PID.TID 0000.0001) %MON dynstat_theta_mean           =   3.2789342811153E+02
(PID.TID 0000.0001) %MON dynstat_theta_sd             =   9.0372477186829E+01
(PID.TID 0000.0001) %MON dynstat_theta_del2           =   6.1625853354175E-04
(PID.TID 0000.0001) %MON dynstat_salt_max             =   2.0318890291332E-02
(PID.TID 0000.0001) %MON dynstat_salt_min             =   0.0000000000000E+00
(PID.TID 0000.0001) %MON dynstat_salt_mean            =   1.8473715586577E-03
(PID.TID 0000.0001) %MON dynstat_salt_sd              =   3.8392736471502E-03
(PID.TID 0000.0001) %MON dynstat_salt_del2            =   6.6771512920397E-07
(PID.TID 0000.0001) %MON advcfl_uvel_max              =   5.4034892357314E-02
(PID.TID 0000.0001) %MON advcfl_vvel_max              =   5.4015747387071E-02
(PID.TID 0000.0001) %MON advcfl_wvel_max              =   8.0664994602838E-03
(PID.TID 0000.0001) %MON advcfl_W_hf_max              =   8.4541741696382E-03
(PID.TID 0000.0001) %MON am_eta_mean                  =  -6.1524681985180E+10
(PID.TID 0000.0001) %MON am_uZo_mean                  =   6.1469169468587E+10
(PID.TID 0000.0001) %MON am_tot_mean                  =  -5.5512516592926E+07
(PID.TID 0000.0001) %MON pe_b_mean                    =   2.6079736410559E+00
(PID.TID 0000.0001) %MON ke_max                       =   1.6920809460247E+02
(PID.TID 0000.0001) %MON ke_mean                      =   3.4173086489305E+01
(PID.TID 0000.0001) %MON ke_vol                       =   5.0986421042785E+19
(PID.TID 0000.0001) %MON vort_r_min                   =  -3.8631494874659E-06
(PID.TID 0000.0001) %MON vort_r_max                   =   3.8637134135457E-06
(PID.TID 0000.0001) %MON vort_a_mean                  =   9.3151496603836E-20
(PID.TID 0000.0001) %MON vort_a_sd                    =   8.4482223218748E-05
(PID.TID 0000.0001) %MON vort_p_mean                  =   9.3151458675857E-20
(PID.TID 0000.0001) %MON vort_p_sd                    =   8.4222763852824E-05
(PID.TID 0000.0001) %MON surfExpan_theta_mean         =  -3.6106437639859E+00
(PID.TID 0000.0001) %MON surfExpan_salt_mean          =  -3.3995953054833E-04
(PID.TID 0000.0001) %MON surfExpan_Heat_mean          =  -3.1813379850840E+02
(PID.TID 0000.0001) %MON En_Budget_T2PE_mean          =   3.9276844712340E+01
(PID.TID 0000.0001) // =======================================================
(PID.TID 0000.0001) // End MONITOR dynamic field statistics
(PID.TID 0000.0001) // =======================================================
 cg2d: Sum(rhs),rhsMax =   8.38190317153931E-09  1.20480918341103E+04
(PID.TID 0000.0001)      cg2d_init_res =   5.12828746545951E+04
(PID.TID 0000.0001)      cg2d_iters(min,last) =      -1      13
(PID.TID 0000.0001)      cg2d_last_res =   1.11224460622602E-10
(PID.TID 0000.0001) // =======================================================
(PID.TID 0000.0001) // Begin MONITOR dynamic field statistics
(PID.TID 0000.0001) // =======================================================
(PID.TID 0000.0001) %MON time_tsnumber                =                    16
(PID.TID 0000.0001) %MON time_secondsf                =   5.7600000000000E+03
(PID.TID 0000.0001) %MON dynstat_eta_max              =   1.5023809929009E+03
(PID.TID 0000.0001) %MON dynstat_eta_min              =  -1.1058521555558E+03
(PID.TID 0000.0001) %MON dynstat_eta_mean             =  -2.1422697344262E-14
(PID.TID 0000.0001) %MON dynstat_eta_sd               =   8.8159155736750E+02
(PID.TID 0000.0001) %MON dynstat_eta_del2             =   4.5610118327641E-01
(PID.TID 0000.0001) %MON dynstat_uvel_max             =   1.9300615924503E+01
(PID.TID 0000.0001) %MON dynstat_uvel_min             =  -1.9318124475990E+01
(PID.TID 0000.0001) %MON dynstat_uvel_mean            =   3.7669422464326E-01
(PID.TID 0000.0001) %MON dynstat_uvel_sd              =   6.1651401232781E+00
(PID.TID 0000.0001) %MON dynstat_uvel_del2            =   1.2393735231143E-03
(PID.TID 0000.0001) %MON dynstat_vvel_max             =   1.9318547966661E+01
(PID.TID 0000.0001) %MON dynstat_vvel_min             =  -1.9301686367017E+01
(PID.TID 0000.0001) %MON dynstat_vvel_mean            =   3.8008366810934E-01
(PID.TID 0000.0001) %MON dynstat_vvel_sd              =   6.1650759822782E+00
(PID.TID 0000.0001) %MON dynstat_vvel_del2            =   1.2398383633743E-03
(PID.TID 0000.0001) %MON dynstat_wvel_max             =   1.7801933014277E-01
(PID.TID 0000.0001) %MON dynstat_wvel_min             =  -2.2075133052753E-01
(PID.TID 0000.0001) %MON dynstat_wvel_mean            =   1.4718201716153E-16
(PID.TID 0000.0001) %MON dynstat_wvel_sd              =   6.0394131265294E-02
(PID.TID 0000.0001) %MON dynstat_wvel_del2            =   6.2596488151010E-05
(PID.TID 0000.0001) %MON dynstat_theta_max            =   1.1553546702227E+03
(PID.TID 0000.0001) %MON dynstat_theta_min            =   2.5675863295798E+02
(PID.TID 0000.0001) %MON dynstat_theta_mean           =   3.2789369710335E+02
(PID.TID 0000.0001) %MON dynstat_theta_sd             =   9.0373489098414E+01
(PID.TID 0000.0001) %MON dynstat_theta_del2           =   6.2503051309344E-04
(PID.TID 0000.0001) %MON dynstat_salt_max             =   2.0319144236745E-02
(PID.TID 0000.0001) %MON dynstat_salt_min             =   0.0000000000000E+00
(PID.TID 0000.0001) %MON dynstat_salt_mean            =   1.8505577617998E-03
(PID.TID 0000.0001) %MON dynstat_salt_sd              =   3.8422524002727E-03
(PID.TID 0000.0001) %MON dynstat_salt_del2            =   6.9666952542172E-07
(PID.TID 0000.0001) %MON advcfl_uvel_max              =   5.7423348236364E-02
(PID.TID 0000.0001) %MON advcfl_vvel_max              =   5.7402064204404E-02
(PID.TID 0000.0001) %MON advcfl_wvel_max              =   8.5086165942089E-03
(PID.TID 0000.0001) %MON advcfl_W_hf_max              =   8.8694894968074E-03
(PID.TID 0000.0001) %MON am_eta_mean                  =  -6.9736906290479E+10
(PID.TID 0000.0001) %MON am_uZo_mean                  =   6.9668553497231E+10
(PID.TID 0000.0001) %MON am_tot_mean                  =  -6.8352793248672E+07
(PID.TID 0000.0001) %MON pe_b_mean                    =   3.2916714459328E+00
(PID.TID 0000.0001) %MON ke_max                       =   1.8977979714937E+02
(PID.TID 0000.0001) %MON ke_mean                      =   3.8151738370336E+01
(PID.TID 0000.0001) %MON ke_vol                       =   5.0986421042785E+19
(PID.TID 0000.0001) %MON vort_r_min                   =  -4.3134057099672E-06
(PID.TID 0000.0001) %MON vort_r_max                   =   4.3136759354491E-06
(PID.TID 0000.0001) %MON vort_a_mean                  =  -1.0050556212519E-19
(PID.TID 0000.0001) %MON vort_a_sd                    =   8.4518509077833E-05
(PID.TID 0000.0001) %MON vort_p_mean                  =  -1.0050551577766E-19
(PID.TID 0000.0001) %MON vort_p_sd                    =   8.4224139061440E-05
(PID.TID 0000.0001) %MON surfExpan_theta_mean         =  -3.7756557976650E+00
(PID.TID 0000.0001) %MON surfExpan_salt_mean          =  -3.5647803606514E-04
(PID.TID 0000.0001) %MON surfExpan_Heat_mean          =  -3.3288333187160E+02
(PID.TID 0000.0001) %MON En_Budget_T2PE_mean          =   4.1443250639665E+01
(PID.TID 0000.0001) // =======================================================
(PID.TID 0000.0001) // End MONITOR dynamic field statistics
(PID.TID 0000.0001) // =======================================================
(PID.TID 0000.0001)   Exporting atmospheric fluxes at iter.        16
(PID.TID 0000.0001)   Importing oceanic fields at iteration        16
 cg2d: Sum(rhs),rhsMax =  -1.11758708953857E-08  1.33696134733418E+04
(PID.TID 0000.0001)      cg2d_init_res =   5.34993898252031E+04
(PID.TID 0000.0001)      cg2d_iters(min,last) =      -1      13
(PID.TID 0000.0001)      cg2d_last_res =   1.17414049883413E-10
(PID.TID 0000.0001) // =======================================================
(PID.TID 0000.0001) // Begin MONITOR dynamic field statistics
(PID.TID 0000.0001) // =======================================================
(PID.TID 0000.0001) %MON time_tsnumber                =                    17
(PID.TID 0000.0001) %MON time_secondsf                =   6.1200000000000E+03
(PID.TID 0000.0001) %MON dynstat_eta_max              =   1.6673858299973E+03
(PID.TID 0000.0001) %MON dynstat_eta_min              =  -1.2326545868330E+03
(PID.TID 0000.0001) %MON dynstat_eta_mean             =  -2.5707236813114E-13
(PID.TID 0000.0001) %MON dynstat_eta_sd               =   9.8265842493204E+02
(PID.TID 0000.0001) %MON dynstat_eta_del2             =   4.8130751713337E-01
(PID.TID 0000.0001) %MON dynstat_uvel_max             =   2.0349763348358E+01
(PID.TID 0000.0001) %MON dynstat_uvel_min             =  -2.0369066537823E+01
(PID.TID 0000.0001) %MON dynstat_uvel_mean            =   4.2090363467014E-01
(PID.TID 0000.0001) %MON dynstat_uvel_sd              =   6.4840550673968E+00
(PID.TID 0000.0001) %MON dynstat_uvel_del2            =   1.2958848142546E-03
(PID.TID 0000.0001) %MON dynstat_vvel_max             =   2.0370153144759E+01
(PID.TID 0000.0001) %MON dynstat_vvel_min             =  -2.0350796446840E+01
(PID.TID 0000.0001) %MON dynstat_vvel_mean            =   4.2472687861817E-01
(PID.TID 0000.0001) %MON dynstat_vvel_sd              =   6.4839651066244E+00
(PID.TID 0000.0001) %MON dynstat_vvel_del2            =   1.2964019875347E-03
(PID.TID 0000.0001) %MON dynstat_wvel_max             =   1.8840097895773E-01
(PID.TID 0000.0001) %MON dynstat_wvel_min             =  -2.3133889412520E-01
(PID.TID 0000.0001) %MON dynstat_wvel_mean            =  -1.5095591503747E-17
(PID.TID 0000.0001) %MON dynstat_wvel_sd              =   6.3630420540846E-02
(PID.TID 0000.0001) %MON dynstat_wvel_del2            =   6.5565473385369E-05
(PID.TID 0000.0001) %MON dynstat_theta_max            =   1.1554824446098E+03
(PID.TID 0000.0001) %MON dynstat_theta_min            =   2.5685493425813E+02
(PID.TID 0000.0001) %MON dynstat_theta_mean           =   3.2789377148688E+02
(PID.TID 0000.0001) %MON dynstat_theta_sd             =   9.0374679133219E+01
(PID.TID 0000.0001) %MON dynstat_theta_del2           =   6.3301390113168E-04
(PID.TID 0000.0001) %MON dynstat_salt_max             =   2.0319399417107E-02
(PID.TID 0000.0001) %MON dynstat_salt_min             =   0.0000000000000E+00
(PID.TID 0000.0001) %MON dynstat_salt_mean            =   1.8537274858577E-03
(PID.TID 0000.0001) %MON dynstat_salt_sd              =   3.8453038976990E-03
(PID.TID 0000.0001) %MON dynstat_salt_del2            =   7.2124088653866E-07
(PID.TID 0000.0001) %MON advcfl_uvel_max              =   6.0767266089288E-02
(PID.TID 0000.0001) %MON advcfl_vvel_max              =   6.0743551036582E-02
(PID.TID 0000.0001) %MON advcfl_wvel_max              =   8.9167025572883E-03
(PID.TID 0000.0001) %MON advcfl_W_hf_max              =   9.2517728725816E-03
(PID.TID 0000.0001) %MON am_eta_mean                  =  -7.8347715093246E+10
(PID.TID 0000.0001) %MON am_uZo_mean                  =   7.8264986249490E+10
(PID.TID 0000.0001) %MON am_tot_mean                  =  -8.2728843756165E+07
(PID.TID 0000.0001) %MON pe_b_mean                    =   4.0896561896388E+00
(PID.TID 0000.0001) %MON ke_max                       =   2.1102526573857E+02
(PID.TID 0000.0001) %MON ke_mean                      =   4.2221163206098E+01
(PID.TID 0000.0001) %MON ke_vol                       =   5.0986421042785E+19
(PID.TID 0000.0001) %MON vort_r_min                   =  -4.7795934016478E-06
(PID.TID 0000.0001) %MON vort_r_max                   =   4.7795269392774E-06
(PID.TID 0000.0001) %MON vort_a_mean                  =   4.1673037954347E-20
(PID.TID 0000.0001) %MON vort_a_sd                    =   8.4556558901311E-05
(PID.TID 0000.0001) %MON vort_p_mean                  =   4.1673016367003E-20
(PID.TID 0000.0001) %MON vort_p_sd                    =   8.4225515707314E-05
(PID.TID 0000.0001) %MON surfExpan_theta_mean         =  -3.9280167207630E+00
(PID.TID 0000.0001) %MON surfExpan_salt_mean          =  -3.7195677212322E-04
(PID.TID 0000.0001) %MON surfExpan_Heat_mean          =  -3.4654592350153E+02
(PID.TID 0000.0001) %MON En_Budget_T2PE_mean          =   4.3534294536650E+01
(PID.TID 0000.0001) // =======================================================
(PID.TID 0000.0001) // End MONITOR dynamic field statistics
(PID.TID 0000.0001) // =======================================================
 cg2d: Sum(rhs),rhsMax =   0.00000000000000E+00  1.47337147377834E+04
(PID.TID 0000.0001)      cg2d_init_res =   5.55544243787920E+04
(PID.TID 0000.0001)      cg2d_iters(min,last) =      -1      13
(PID.TID 0000.0001)      cg2d_last_res =   1.23468370360457E-10
(PID.TID 0000.0001) // =======================================================
(PID.TID 0000.0001) // Begin MONITOR dynamic field statistics
(PID.TID 0000.0001) // =======================================================
(PID.TID 0000.0001) %MON time_tsnumber                =                    18
(PID.TID 0000.0001) %MON time_secondsf                =   6.4800000000000E+03
(PID.TID 0000.0001) %MON dynstat_eta_max              =   1.8377753294089E+03
(PID.TID 0000.0001) %MON dynstat_eta_min              =  -1.3642711719403E+03
(PID.TID 0000.0001) %MON dynstat_eta_mean             =  -2.1422697344262E-13
(PID.TID 0000.0001) %MON dynstat_eta_sd               =   1.0876081617463E+03
(PID.TID 0000.0001) %MON dynstat_eta_del2             =   5.0570970389571E-01
(PID.TID 0000.0001) %MON dynstat_uvel_max             =   2.1367072757761E+01
(PID.TID 0000.0001) %MON dynstat_uvel_min             =  -2.1388263268587E+01
(PID.TID 0000.0001) %MON dynstat_uvel_mean            =   4.6680265524705E-01
(PID.TID 0000.0001) %MON dynstat_uvel_sd              =   6.7925956347116E+00
(PID.TID 0000.0001) %MON dynstat_uvel_del2            =   1.3499542852758E-03
(PID.TID 0000.0001) %MON dynstat_vvel_max             =   2.1390034500975E+01
(PID.TID 0000.0001) %MON dynstat_vvel_min             =  -2.1368068920733E+01
(PID.TID 0000.0001) %MON dynstat_vvel_mean            =   4.7108087408209E-01
(PID.TID 0000.0001) %MON dynstat_vvel_sd              =   6.7924739268956E+00
(PID.TID 0000.0001) %MON dynstat_vvel_del2            =   1.3505251228555E-03
(PID.TID 0000.0001) %MON dynstat_wvel_max             =   1.9826301664619E-01
(PID.TID 0000.0001) %MON dynstat_wvel_min             =  -2.4098185487496E-01
(PID.TID 0000.0001) %MON dynstat_wvel_mean            =   1.5095591503747E-16
(PID.TID 0000.0001) %MON dynstat_wvel_sd              =   6.6785780200461E-02
(PID.TID 0000.0001) %MON dynstat_wvel_del2            =   6.8423555875740E-05
(PID.TID 0000.0001) %MON dynstat_theta_max            =   1.1555902782594E+03
(PID.TID 0000.0001) %MON dynstat_theta_min            =   2.5694901143775E+02
(PID.TID 0000.0001) %MON dynstat_theta_mean           =   3.2789365409358E+02
(PID.TID 0000.0001) %MON dynstat_theta_sd             =   9.0376042819177E+01
(PID.TID 0000.0001) %MON dynstat_theta_del2           =   6.3913438569343E-04
(PID.TID 0000.0001) %MON dynstat_salt_max             =   2.0319655613181E-02
(PID.TID 0000.0001) %MON dynstat_salt_min             =   0.0000000000000E+00
(PID.TID 0000.0001) %MON dynstat_salt_mean            =   1.8568989186637E-03
(PID.TID 0000.0001) %MON dynstat_salt_sd              =   3.8484463482412E-03
(PID.TID 0000.0001) %MON dynstat_salt_del2            =   7.4318813687251E-07
(PID.TID 0000.0001) %MON advcfl_uvel_max              =   6.4065642166146E-02
(PID.TID 0000.0001) %MON advcfl_vvel_max              =   6.4040219434548E-02
(PID.TID 0000.0001) %MON advcfl_wvel_max              =   9.2883798452874E-03
(PID.TID 0000.0001) %MON advcfl_W_hf_max              =   9.6110125229430E-03
(PID.TID 0000.0001) %MON am_eta_mean                  =  -8.7330956101870E+10
(PID.TID 0000.0001) %MON am_uZo_mean                  =   8.7232300069380E+10
(PID.TID 0000.0001) %MON am_tot_mean                  =  -9.8656032490677E+07
(PID.TID 0000.0001) %MON pe_b_mean                    =   5.0098710914047E+00
(PID.TID 0000.0001) %MON ke_max                       =   2.3285433297052E+02
(PID.TID 0000.0001) %MON ke_mean                      =   4.6358439706648E+01
(PID.TID 0000.0001) %MON ke_vol                       =   5.0986421042785E+19
(PID.TID 0000.0001) %MON vort_r_min                   =  -5.2603858778767E-06
(PID.TID 0000.0001) %MON vort_r_max                   =   5.2599429124744E-06
(PID.TID 0000.0001) %MON vort_a_mean                  =   1.1766504834169E-19
(PID.TID 0000.0001) %MON vort_a_sd                    =   8.4596274671499E-05
(PID.TID 0000.0001) %MON vort_p_mean                  =   1.1521362663403E-19
(PID.TID 0000.0001) %MON vort_p_sd                    =   8.4226898318522E-05
(PID.TID 0000.0001) %MON surfExpan_theta_mean         =  -4.0673546461802E+00
(PID.TID 0000.0001) %MON surfExpan_salt_mean          =  -3.8635587203350E-04
(PID.TID 0000.0001) %MON surfExpan_Heat_mean          =  -3.5908707356648E+02
(PID.TID 0000.0001) %MON En_Budget_T2PE_mean          =   4.5547604225570E+01
(PID.TID 0000.0001) // =======================================================
(PID.TID 0000.0001) // End MONITOR dynamic field statistics
(PID.TID 0000.0001) // =======================================================
 cg2d: Sum(rhs),rhsMax =   5.58793544769287E-09  1.61373174232808E+04
(PID.TID 0000.0001)      cg2d_init_res =   5.74422226207947E+04
(PID.TID 0000.0001)      cg2d_iters(min,last) =      -1      13
(PID.TID 0000.0001)      cg2d_last_res =   1.29618500841890E-10
(PID.TID 0000.0001) // =======================================================
(PID.TID 0000.0001) // Begin MONITOR dynamic field statistics
(PID.TID 0000.0001) // =======================================================
(PID.TID 0000.0001) %MON time_tsnumber                =                    19
(PID.TID 0000.0001) %MON time_secondsf                =   6.8400000000000E+03
(PID.TID 0000.0001) %MON dynstat_eta_max              =   2.0131694140140E+03
(PID.TID 0000.0001) %MON dynstat_eta_min              =  -1.5002727704891E+03
(PID.TID 0000.0001) %MON dynstat_eta_mean             =   7.2837170970490E-13
(PID.TID 0000.0001) %MON dynstat_eta_sd               =   1.1961249141015E+03
(PID.TID 0000.0001) %MON dynstat_eta_del2             =   5.2928404228694E-01
(PID.TID 0000.0001) %MON dynstat_uvel_max             =   2.2350650763315E+01
(PID.TID 0000.0001) %MON dynstat_uvel_min             =  -2.2373817965629E+01
(PID.TID 0000.0001) %MON dynstat_uvel_mean            =   5.1424372168938E-01
(PID.TID 0000.0001) %MON dynstat_uvel_sd              =   7.0905091324380E+00
(PID.TID 0000.0001) %MON dynstat_uvel_del2            =   1.4016214931326E-03
(PID.TID 0000.0001) %MON dynstat_vvel_max             =   2.2376265177906E+01
(PID.TID 0000.0001) %MON dynstat_vvel_min             =  -2.2351614001267E+01
(PID.TID 0000.0001) %MON dynstat_vvel_mean            =   5.1899683784973E-01
(PID.TID 0000.0001) %MON dynstat_vvel_sd              =   7.0903492159560E+00
(PID.TID 0000.0001) %MON dynstat_vvel_del2            =   1.4022439617387E-03
(PID.TID 0000.0001) %MON dynstat_wvel_max             =   2.0925552792289E-01
(PID.TID 0000.0001) %MON dynstat_wvel_min             =  -2.4964036869842E-01
(PID.TID 0000.0001) %MON dynstat_wvel_mean            =   3.0191183007494E-17
(PID.TID 0000.0001) %MON dynstat_wvel_sd              =   6.9856760200535E-02
(PID.TID 0000.0001) %MON dynstat_wvel_del2            =   7.1154983070355E-05
(PID.TID 0000.0001) %MON dynstat_theta_max            =   1.1556827803096E+03
(PID.TID 0000.0001) %MON dynstat_theta_min            =   2.5704090173648E+02
(PID.TID 0000.0001) %MON dynstat_theta_mean           =   3.2789334930571E+02
(PID.TID 0000.0001) %MON dynstat_theta_sd             =   9.0377573746662E+01
(PID.TID 0000.0001) %MON dynstat_theta_del2           =   6.4270151677563E-04
(PID.TID 0000.0001) %MON dynstat_salt_max             =   2.0319912887782E-02
(PID.TID 0000.0001) %MON dynstat_salt_min             =   0.0000000000000E+00
(PID.TID 0000.0001) %MON dynstat_salt_mean            =   1.8600775191315E-03
(PID.TID 0000.0001) %MON dynstat_salt_sd              =   3.8517094235158E-03
(PID.TID 0000.0001) %MON dynstat_salt_del2            =   7.6190046119540E-07
(PID.TID 0000.0001) %MON advcfl_uvel_max              =   6.7283210961796E-02
(PID.TID 0000.0001) %MON advcfl_vvel_max              =   6.7256503467458E-02
(PID.TID 0000.0001) %MON advcfl_wvel_max              =   9.6221127121448E-03
(PID.TID 0000.0001) %MON advcfl_W_hf_max              =   9.9284713434846E-03
(PID.TID 0000.0001) %MON am_eta_mean                  =  -9.6659426652542E+10
(PID.TID 0000.0001) %MON am_uZo_mean                  =   9.6543292785754E+10
(PID.TID 0000.0001) %MON am_tot_mean                  =  -1.1613386678816E+08
(PID.TID 0000.0001) %MON pe_b_mean                    =   6.0594709536345E+00
(PID.TID 0000.0001) %MON ke_max                       =   2.5516021044717E+02
(PID.TID 0000.0001) %MON ke_mean                      =   5.0541088042289E+01
(PID.TID 0000.0001) %MON ke_vol                       =   5.0986421042785E+19
(PID.TID 0000.0001) %MON vort_r_min                   =  -5.7544284194519E-06
(PID.TID 0000.0001) %MON vort_r_max                   =   5.7535746524385E-06
(PID.TID 0000.0001) %MON vort_a_mean                  =   7.5992010387339E-20
(PID.TID 0000.0001) %MON vort_a_sd                    =   8.4637552998407E-05
(PID.TID 0000.0001) %MON vort_p_mean                  =   7.5991961812486E-20
(PID.TID 0000.0001) %MON vort_p_sd                    =   8.4228291115057E-05
(PID.TID 0000.0001) %MON surfExpan_theta_mean         =  -4.1933425762200E+00
(PID.TID 0000.0001) %MON surfExpan_salt_mean          =  -3.9964263277011E-04
(PID.TID 0000.0001) %MON surfExpan_Heat_mean          =  -3.7047591338829E+02
(PID.TID 0000.0001) %MON En_Budget_T2PE_mean          =   4.7480925349465E+01
(PID.TID 0000.0001) // =======================================================
(PID.TID 0000.0001) // End MONITOR dynamic field statistics
(PID.TID 0000.0001) // =======================================================
 cg2d: Sum(rhs),rhsMax =   2.04890966415405E-08  1.75777973732782E+04
(PID.TID 0000.0001)      cg2d_init_res =   5.91575775835845E+04
(PID.TID 0000.0001)      cg2d_iters(min,last) =      -1      13
(PID.TID 0000.0001)      cg2d_last_res =   1.36043151359281E-10
(PID.TID 0000.0001) // =======================================================
(PID.TID 0000.0001) // Begin MONITOR dynamic field statistics
(PID.TID 0000.0001) // =======================================================
(PID.TID 0000.0001) %MON time_tsnumber                =                    20
(PID.TID 0000.0001) %MON time_secondsf                =   7.2000000000000E+03
(PID.TID 0000.0001) %MON dynstat_eta_max              =   2.1932375812201E+03
(PID.TID 0000.0001) %MON dynstat_eta_min              =  -1.6402168580913E+03
(PID.TID 0000.0001) %MON dynstat_eta_mean             =  -3.8560855219671E-13
(PID.TID 0000.0001) %MON dynstat_eta_sd               =   1.3078831407459E+03
(PID.TID 0000.0001) %MON dynstat_eta_del2             =   5.5203385867317E-01
(PID.TID 0000.0001) %MON dynstat_uvel_max             =   2.3328640118752E+01
(PID.TID 0000.0001) %MON dynstat_uvel_min             =  -2.3352061347030E+01
(PID.TID 0000.0001) %MON dynstat_uvel_mean            =   5.6307565310698E-01
(PID.TID 0000.0001) %MON dynstat_uvel_sd              =   7.3775854200508E+00
(PID.TID 0000.0001) %MON dynstat_uvel_del2            =   1.4508620491126E-03
(PID.TID 0000.0001) %MON dynstat_vvel_max             =   2.3353868182341E+01
(PID.TID 0000.0001) %MON dynstat_vvel_min             =  -2.3329157189512E+01
(PID.TID 0000.0001) %MON dynstat_vvel_mean            =   5.6832229321640E-01
(PID.TID 0000.0001) %MON dynstat_vvel_sd              =   7.3773802300473E+00
(PID.TID 0000.0001) %MON dynstat_vvel_del2            =   1.4515393664784E-03
(PID.TID 0000.0001) %MON dynstat_wvel_max             =   2.2023422989334E-01
(PID.TID 0000.0001) %MON dynstat_wvel_min             =  -2.5729222145400E-01
(PID.TID 0000.0001) %MON dynstat_wvel_mean            =  -1.2579659586456E-17
(PID.TID 0000.0001) %MON dynstat_wvel_sd              =   7.2840082584835E-02
(PID.TID 0000.0001) %MON dynstat_wvel_del2            =   7.3747430344681E-05
(PID.TID 0000.0001) %MON dynstat_theta_max            =   1.1557694369232E+03
(PID.TID 0000.0001) %MON dynstat_theta_min            =   2.5713060117675E+02
(PID.TID 0000.0001) %MON dynstat_theta_mean           =   3.2789285283438E+02
(PID.TID 0000.0001) %MON dynstat_theta_sd             =   9.0379270594735E+01
(PID.TID 0000.0001) %MON dynstat_theta_del2           =   6.4373542533672E-04
(PID.TID 0000.0001) %MON dynstat_salt_max             =   2.0320171312659E-02
(PID.TID 0000.0001) %MON dynstat_salt_min             =   0.0000000000000E+00
(PID.TID 0000.0001) %MON dynstat_salt_mean            =   1.8632719853816E-03
(PID.TID 0000.0001) %MON dynstat_salt_sd              =   3.8551015396447E-03
(PID.TID 0000.0001) %MON dynstat_salt_del2            =   7.7682756949408E-07
(PID.TID 0000.0001) %MON advcfl_uvel_max              =   7.0413998006334E-02
(PID.TID 0000.0001) %MON advcfl_vvel_max              =   7.0386316777935E-02
(PID.TID 0000.0001) %MON advcfl_wvel_max              =   9.9170449382698E-03
(PID.TID 0000.0001) %MON advcfl_W_hf_max              =   1.0250697327156E-02
(PID.TID 0000.0001) %MON am_eta_mean                  =  -1.0630494810765E+11
(PID.TID 0000.0001) %MON am_uZo_mean                  =   1.0616979885989E+11
(PID.TID 0000.0001) %MON am_tot_mean                  =  -1.3514924775711E+08
(PID.TID 0000.0001) %MON pe_b_mean                    =   7.2446851878504E+00
(PID.TID 0000.0001) %MON ke_max                       =   2.7784675284532E+02
(PID.TID 0000.0001) %MON ke_mean                      =   5.4747275054565E+01
(PID.TID 0000.0001) %MON ke_vol                       =   5.0986421042785E+19
(PID.TID 0000.0001) %MON vort_r_min                   =  -6.2603180841024E-06
(PID.TID 0000.0001) %MON vort_r_max                   =   6.2590230535322E-06
(PID.TID 0000.0001) %MON vort_a_mean                  =  -2.4513551737851E-21
(PID.TID 0000.0001) %MON vort_a_sd                    =   8.4680284693242E-05
(PID.TID 0000.0001) %MON vort_p_mean                  =  -2.4513534508002E-21
(PID.TID 0000.0001) %MON vort_p_sd                    =   8.4229697406247E-05
(PID.TID 0000.0001) %MON surfExpan_theta_mean         =  -4.3057037582812E+00
(PID.TID 0000.0001) %MON surfExpan_salt_mean          =  -4.1178583822791E-04
(PID.TID 0000.0001) %MON surfExpan_Heat_mean          =  -3.8068563292503E+02
(PID.TID 0000.0001) %MON En_Budget_T2PE_mean          =   4.9332260541646E+01
(PID.TID 0000.0001) // =======================================================
(PID.TID 0000.0001) // End MONITOR dynamic field statistics
(PID.TID 0000.0001) // =======================================================
 cg2d: Sum(rhs),rhsMax =   1.49011611938477E-08  1.90529101364286E+04
(PID.TID 0000.0001)      cg2d_init_res =   6.06958649765075E+04
(PID.TID 0000.0001)      cg2d_iters(min,last) =      -1      14
(PID.TID 0000.0001)      cg2d_last_res =   7.11932498873618E-12
(PID.TID 0000.0001) // =======================================================
(PID.TID 0000.0001) // Begin MONITOR dynamic field statistics
(PID.TID 0000.0001) // =======================================================
(PID.TID 0000.0001) %MON time_tsnumber                =                    21
(PID.TID 0000.0001) %MON time_secondsf                =   7.5600000000000E+03
(PID.TID 0000.0001) %MON dynstat_eta_max              =   2.3776886849763E+03
(PID.TID 0000.0001) %MON dynstat_eta_min              =  -1.7836533213088E+03
(PID.TID 0000.0001) %MON dynstat_eta_mean             =   5.5699013095080E-13
(PID.TID 0000.0001) %MON dynstat_eta_sd               =   1.4225485558879E+03
(PID.TID 0000.0001) %MON dynstat_eta_del2             =   5.7398458062198E-01
(PID.TID 0000.0001) %MON dynstat_uvel_max             =   2.4281253103964E+01
(PID.TID 0000.0001) %MON dynstat_uvel_min             =  -2.4306540498787E+01
(PID.TID 0000.0001) %MON dynstat_uvel_mean            =   6.1314417814652E-01
(PID.TID 0000.0001) %MON dynstat_uvel_sd              =   7.6536589759339E+00
(PID.TID 0000.0001) %MON dynstat_uvel_del2            =   1.4977116601495E-03
(PID.TID 0000.0001) %MON dynstat_vvel_max             =   2.4308779155910E+01
(PID.TID 0000.0001) %MON dynstat_vvel_min             =  -2.4281319817479E+01
(PID.TID 0000.0001) %MON dynstat_vvel_mean            =   6.1890166564743E-01
(PID.TID 0000.0001) %MON dynstat_vvel_sd              =   7.6534006881061E+00
(PID.TID 0000.0001) %MON dynstat_vvel_del2            =   1.4984418667878E-03
(PID.TID 0000.0001) %MON dynstat_wvel_max             =   2.3067318879305E-01
(PID.TID 0000.0001) %MON dynstat_wvel_min             =  -2.6392893905033E-01
(PID.TID 0000.0001) %MON dynstat_wvel_mean            =   5.2834570263115E-17
(PID.TID 0000.0001) %MON dynstat_wvel_sd              =   7.5732854177639E-02
(PID.TID 0000.0001) %MON dynstat_wvel_del2            =   7.6192740625087E-05
(PID.TID 0000.0001) %MON dynstat_theta_max            =   1.1558786416724E+03
(PID.TID 0000.0001) %MON dynstat_theta_min            =   2.5721810693373E+02
(PID.TID 0000.0001) %MON dynstat_theta_mean           =   3.2789216631722E+02
(PID.TID 0000.0001) %MON dynstat_theta_sd             =   9.0381128108387E+01
(PID.TID 0000.0001) %MON dynstat_theta_del2           =   6.4297962748646E-04
(PID.TID 0000.0001) %MON dynstat_salt_max             =   2.0320430970898E-02
(PID.TID 0000.0001) %MON dynstat_salt_min             =   0.0000000000000E+00
(PID.TID 0000.0001) %MON dynstat_salt_mean            =   1.8664901626546E-03
(PID.TID 0000.0001) %MON dynstat_salt_sd              =   3.8586512769030E-03
(PID.TID 0000.0001) %MON dynstat_salt_del2            =   7.8870959151068E-07
(PID.TID 0000.0001) %MON advcfl_uvel_max              =   7.3452521045916E-02
(PID.TID 0000.0001) %MON advcfl_vvel_max              =   7.3424093645637E-02
(PID.TID 0000.0001) %MON advcfl_wvel_max              =   1.0172849899156E-02
(PID.TID 0000.0001) %MON advcfl_W_hf_max              =   1.0620285626338E-02
(PID.TID 0000.0001) %MON am_eta_mean                  =  -1.1623844338850E+11
(PID.TID 0000.0001) %MON am_uZo_mean                  =   1.1608276784808E+11
(PID.TID 0000.0001) %MON am_tot_mean                  =  -1.5567554042033E+08
(PID.TID 0000.0001) %MON pe_b_mean                    =   8.5706909149291E+00
(PID.TID 0000.0001) %MON ke_max                       =   3.0081972666916E+02
(PID.TID 0000.0001) %MON ke_mean                      =   5.8956011433870E+01
(PID.TID 0000.0001) %MON ke_vol                       =   5.0986421042785E+19
(PID.TID 0000.0001) %MON vort_r_min                   =  -6.7765850183606E-06
(PID.TID 0000.0001) %MON vort_r_max                   =   6.7748211667688E-06
(PID.TID 0000.0001) %MON vort_a_mean                  =  -2.6964906911637E-20
(PID.TID 0000.0001) %MON vort_a_sd                    =   8.4724358824920E-05
(PID.TID 0000.0001) %MON vort_p_mean                  =  -2.6964886198236E-20
(PID.TID 0000.0001) %MON vort_p_sd                    =   8.4231123395795E-05
(PID.TID 0000.0001) %MON surfExpan_theta_mean         =  -4.4042062981745E+00
(PID.TID 0000.0001) %MON surfExpan_salt_mean          =  -4.2275829112498E-04
(PID.TID 0000.0001) %MON surfExpan_Heat_mean          =  -3.8969299891770E+02
(PID.TID 0000.0001) %MON En_Budget_T2PE_mean          =   5.1099796471259E+01
(PID.TID 0000.0001) // =======================================================
(PID.TID 0000.0001) // End MONITOR dynamic field statistics
(PID.TID 0000.0001) // =======================================================
 cg2d: Sum(rhs),rhsMax =  -2.42143869400024E-08  2.05607395565561E+04
(PID.TID 0000.0001)      cg2d_init_res =   6.20530178552430E+04
(PID.TID 0000.0001)      cg2d_iters(min,last) =      -1      14
(PID.TID 0000.0001)      cg2d_last_res =   7.54742472703806E-12
(PID.TID 0000.0001) // =======================================================
(PID.TID 0000.0001) // Begin MONITOR dynamic field statistics
(PID.TID 0000.0001) // =======================================================
(PID.TID 0000.0001) %MON time_tsnumber                =                    22
(PID.TID 0000.0001) %MON time_secondsf                =   7.9200000000000E+03
(PID.TID 0000.0001) %MON dynstat_eta_max              =   2.5662789095410E+03
(PID.TID 0000.0001) %MON dynstat_eta_min              =  -1.9301309819311E+03
(PID.TID 0000.0001) %MON dynstat_eta_mean             =  -4.2845394688523E-14
(PID.TID 0000.0001) %MON dynstat_eta_sd               =   1.5397791183691E+03
(PID.TID 0000.0001) %MON dynstat_eta_del2             =   5.9517549950673E-01
(PID.TID 0000.0001) %MON dynstat_uvel_max             =   2.5198709154955E+01
(PID.TID 0000.0001) %MON dynstat_uvel_min             =  -2.5225902322491E+01
(PID.TID 0000.0001) %MON dynstat_uvel_mean            =   6.6429241763556E-01
(PID.TID 0000.0001) %MON dynstat_uvel_sd              =   7.9186026562213E+00
(PID.TID 0000.0001) %MON dynstat_uvel_del2            =   1.5421011655265E-03
(PID.TID 0000.0001) %MON dynstat_vvel_max             =   2.5228487050412E+01
(PID.TID 0000.0001) %MON dynstat_vvel_min             =  -2.5198328730181E+01
(PID.TID 0000.0001) %MON dynstat_vvel_mean            =   6.7057687750112E-01
(PID.TID 0000.0001) %MON dynstat_vvel_sd              =   7.9182830650218E+00
(PID.TID 0000.0001) %MON dynstat_vvel_del2            =   1.5428737824297E-03
(PID.TID 0000.0001) %MON dynstat_wvel_max             =   2.4056103369939E-01
(PID.TID 0000.0001) %MON dynstat_wvel_min             =  -2.6955164964334E-01
(PID.TID 0000.0001) %MON dynstat_wvel_mean            =  -1.1070100436081E-16
(PID.TID 0000.0001) %MON dynstat_wvel_sd              =   7.8532844561984E-02
(PID.TID 0000.0001) %MON dynstat_wvel_del2            =   7.8487575544016E-05
(PID.TID 0000.0001) %MON dynstat_theta_max            =   1.1560586870222E+03
(PID.TID 0000.0001) %MON dynstat_theta_min            =   2.5730341531835E+02
(PID.TID 0000.0001) %MON dynstat_theta_mean           =   3.2789128854920E+02
(PID.TID 0000.0001) %MON dynstat_theta_sd             =   9.0383142175942E+01
(PID.TID 0000.0001) %MON dynstat_theta_del2           =   6.4163119240673E-04
(PID.TID 0000.0001) %MON dynstat_salt_max             =   2.0320691959212E-02
(PID.TID 0000.0001) %MON dynstat_salt_min             =   0.0000000000000E+00
(PID.TID 0000.0001) %MON dynstat_salt_mean            =   1.8697413325720E-03
(PID.TID 0000.0001) %MON dynstat_salt_sd              =   3.8623802999259E-03
(PID.TID 0000.0001) %MON dynstat_salt_del2            =   7.9745356445327E-07
(PID.TID 0000.0001) %MON advcfl_uvel_max              =   7.6393592699701E-02
(PID.TID 0000.0001) %MON advcfl_vvel_max              =   7.6364629200778E-02
(PID.TID 0000.0001) %MON advcfl_wvel_max              =   1.0389571078330E-02
(PID.TID 0000.0001) %MON advcfl_W_hf_max              =   1.0959554100544E-02
(PID.TID 0000.0001) %MON am_eta_mean                  =  -1.2643001810058E+11
(PID.TID 0000.0001) %MON am_uZo_mean                  =   1.2625234498126E+11
(PID.TID 0000.0001) %MON am_tot_mean                  =  -1.7767311931512E+08
(PID.TID 0000.0001) %MON pe_b_mean                    =   1.0041497547914E+01
(PID.TID 0000.0001) %MON ke_max                       =   3.2398663494487E+02
(PID.TID 0000.0001) %MON ke_mean                      =   6.3147216244948E+01
(PID.TID 0000.0001) %MON ke_vol                       =   5.0986421042785E+19
(PID.TID 0000.0001) %MON vort_r_min                   =  -7.3016801739632E-06
(PID.TID 0000.0001) %MON vort_r_max                   =   7.2994234176690E-06
(PID.TID 0000.0001) %MON vort_a_mean                  =  -6.8637944865984E-20
(PID.TID 0000.0001) %MON vort_a_sd                    =   8.4769657244749E-05
(PID.TID 0000.0001) %MON vort_p_mean                  =  -6.8637887564939E-20
(PID.TID 0000.0001) %MON vort_p_sd                    =   8.4232572547298E-05
(PID.TID 0000.0001) %MON surfExpan_theta_mean         =  -4.4886657454504E+00
(PID.TID 0000.0001) %MON surfExpan_salt_mean          =  -4.3253493307596E-04
(PID.TID 0000.0001) %MON surfExpan_Heat_mean          =  -3.9747870675985E+02
(PID.TID 0000.0001) %MON En_Budget_T2PE_mean          =   5.2781844278505E+01
(PID.TID 0000.0001) // =======================================================
(PID.TID 0000.0001) // End MONITOR dynamic field statistics
(PID.TID 0000.0001) // =======================================================
 cg2d: Sum(rhs),rhsMax =  -5.58793544769287E-09  2.21000295144908E+04
(PID.TID 0000.0001)      cg2d_init_res =   6.32255186328021E+04
(PID.TID 0000.0001)      cg2d_iters(min,last) =      -1      14
(PID.TID 0000.0001)      cg2d_last_res =   8.01422283222343E-12
(PID.TID 0000.0001) // =======================================================
(PID.TID 0000.0001) // Begin MONITOR dynamic field statistics
(PID.TID 0000.0001) // =======================================================
(PID.TID 0000.0001) %MON time_tsnumber                =                    23
(PID.TID 0000.0001) %MON time_secondsf                =   8.2800000000000E+03
(PID.TID 0000.0001) %MON dynstat_eta_max              =   2.7619302143716E+03
(PID.TID 0000.0001) %MON dynstat_eta_min              =  -2.0792041264404E+03
(PID.TID 0000.0001) %MON dynstat_eta_mean             =   2.5707236813114E-13
(PID.TID 0000.0001) %MON dynstat_eta_sd               =   1.6592260548537E+03
(PID.TID 0000.0001) %MON dynstat_eta_del2             =   6.1566113001841E-01
(PID.TID 0000.0001) %MON dynstat_uvel_max             =   2.6148400807047E+01
(PID.TID 0000.0001) %MON dynstat_uvel_min             =  -2.6146303071051E+01
(PID.TID 0000.0001) %MON dynstat_uvel_mean            =   7.1636143601729E-01
(PID.TID 0000.0001) %MON dynstat_uvel_sd              =   8.1723434809703E+00
(PID.TID 0000.0001) %MON dynstat_uvel_del2            =   1.5840332113474E-03
(PID.TID 0000.0001) %MON dynstat_vvel_max             =   2.6138124857721E+01
(PID.TID 0000.0001) %MON dynstat_vvel_min             =  -2.6118574467169E+01
(PID.TID 0000.0001) %MON dynstat_vvel_mean            =   7.2318802714052E-01
(PID.TID 0000.0001) %MON dynstat_vvel_sd              =   8.1719536959442E+00
(PID.TID 0000.0001) %MON dynstat_vvel_del2            =   1.5848410589556E-03
(PID.TID 0000.0001) %MON dynstat_wvel_max             =   2.4988637547403E-01
(PID.TID 0000.0001) %MON dynstat_wvel_min             =  -2.7416856028795E-01
(PID.TID 0000.0001) %MON dynstat_wvel_mean            =  -3.5474640033806E-16
(PID.TID 0000.0001) %MON dynstat_wvel_sd              =   8.1237410578484E-02
(PID.TID 0000.0001) %MON dynstat_wvel_del2            =   8.0627937673031E-05
(PID.TID 0000.0001) %MON dynstat_theta_max            =   1.1562287431503E+03
(PID.TID 0000.0001) %MON dynstat_theta_min            =   2.5738653073763E+02
(PID.TID 0000.0001) %MON dynstat_theta_mean           =   3.2789021649484E+02
(PID.TID 0000.0001) %MON dynstat_theta_sd             =   9.0385309335102E+01
(PID.TID 0000.0001) %MON dynstat_theta_del2           =   6.4118040134161E-04
(PID.TID 0000.0001) %MON dynstat_salt_max             =   2.0320954389882E-02
(PID.TID 0000.0001) %MON dynstat_salt_min             =   0.0000000000000E+00
(PID.TID 0000.0001) %MON dynstat_salt_mean            =   1.8730367508075E-03
(PID.TID 0000.0001) %MON dynstat_salt_sd              =   3.8663140612947E-03
(PID.TID 0000.0001) %MON dynstat_salt_del2            =   8.0450096566514E-07
(PID.TID 0000.0001) %MON advcfl_uvel_max              =   7.9232230677534E-02
(PID.TID 0000.0001) %MON advcfl_vvel_max              =   7.9202937477296E-02
(PID.TID 0000.0001) %MON advcfl_wvel_max              =   1.0567524807673E-02
(PID.TID 0000.0001) %MON advcfl_W_hf_max              =   1.1268304156436E-02
(PID.TID 0000.0001) %MON am_eta_mean                  =  -1.3684904409206E+11
(PID.TID 0000.0001) %MON am_uZo_mean                  =   1.3664795656541E+11
(PID.TID 0000.0001) %MON am_tot_mean                  =  -2.0108752664796E+08
(PID.TID 0000.0001) %MON pe_b_mean                    =   1.1659844347340E+01
(PID.TID 0000.0001) %MON ke_max                       =   3.4725644669870E+02
(PID.TID 0000.0001) %MON ke_mean                      =   6.7302099904706E+01
(PID.TID 0000.0001) %MON ke_vol                       =   5.0986421042784E+19
(PID.TID 0000.0001) %MON vort_r_min                   =  -7.8339701609029E-06
(PID.TID 0000.0001) %MON vort_r_max                   =   7.8312005222242E-06
(PID.TID 0000.0001) %MON vort_a_mean                  =   1.5688673112225E-19
(PID.TID 0000.0001) %MON vort_a_sd                    =   8.4816061296095E-05
(PID.TID 0000.0001) %MON vort_p_mean                  =   1.5933794246335E-19
(PID.TID 0000.0001) %MON vort_p_sd                    =   8.4234051951593E-05
(PID.TID 0000.0001) %MON surfExpan_theta_mean         =  -4.5589450398494E+00
(PID.TID 0000.0001) %MON surfExpan_salt_mean          =  -4.4109363720605E-04
(PID.TID 0000.0001) %MON surfExpan_Heat_mean          =  -4.0402732883113E+02
(PID.TID 0000.0001) %MON En_Budget_T2PE_mean          =   5.4377064467642E+01
(PID.TID 0000.0001) // =======================================================
(PID.TID 0000.0001) // End MONITOR dynamic field statistics
(PID.TID 0000.0001) // =======================================================
 cg2d: Sum(rhs),rhsMax =  -3.72529029846191E-09  2.36691053471832E+04
(PID.TID 0000.0001)      cg2d_init_res =   6.42103714011021E+04
(PID.TID 0000.0001)      cg2d_iters(min,last) =      -1      14
(PID.TID 0000.0001)      cg2d_last_res =   8.51991835345772E-12
(PID.TID 0000.0001) // =======================================================
(PID.TID 0000.0001) // Begin MONITOR dynamic field statistics
(PID.TID 0000.0001) // =======================================================
(PID.TID 0000.0001) %MON time_tsnumber                =                    24
(PID.TID 0000.0001) %MON time_secondsf                =   8.6400000000000E+03
(PID.TID 0000.0001) %MON dynstat_eta_max              =   2.9626383607838E+03
(PID.TID 0000.0001) %MON dynstat_eta_min              =  -2.2304382266312E+03
(PID.TID 0000.0001) %MON dynstat_eta_mean             =  -5.1414473626228E-13
(PID.TID 0000.0001) %MON dynstat_eta_sd               =   1.7805348890863E+03
(PID.TID 0000.0001) %MON dynstat_eta_del2             =   6.3550333173202E-01
(PID.TID 0000.0001) %MON dynstat_uvel_max             =   2.7067849745162E+01
(PID.TID 0000.0001) %MON dynstat_uvel_min             =  -2.7065781076205E+01
(PID.TID 0000.0001) %MON dynstat_uvel_mean            =   7.6919078795003E-01
(PID.TID 0000.0001) %MON dynstat_uvel_sd              =   8.4148437676668E+00
(PID.TID 0000.0001) %MON dynstat_uvel_del2            =   1.6234440936889E-03
(PID.TID 0000.0001) %MON dynstat_vvel_max             =   2.7057490812092E+01
(PID.TID 0000.0001) %MON dynstat_vvel_min             =  -2.7035546565944E+01
(PID.TID 0000.0001) %MON dynstat_vvel_mean            =   7.7657389593790E-01
(PID.TID 0000.0001) %MON dynstat_vvel_sd              =   8.4143746618083E+00
(PID.TID 0000.0001) %MON dynstat_vvel_del2            =   1.6242788738994E-03
(PID.TID 0000.0001) %MON dynstat_wvel_max             =   2.5861014413117E-01
(PID.TID 0000.0001) %MON dynstat_wvel_min             =  -2.7779497567211E-01
(PID.TID 0000.0001) %MON dynstat_wvel_mean            =  -7.5477957518736E-17
(PID.TID 0000.0001) %MON dynstat_wvel_sd              =   8.3844898107835E-02
(PID.TID 0000.0001) %MON dynstat_wvel_del2            =   8.2614967362009E-05
(PID.TID 0000.0001) %MON dynstat_theta_max            =   1.1564134620966E+03
(PID.TID 0000.0001) %MON dynstat_theta_min            =   2.5746745929811E+02
(PID.TID 0000.0001) %MON dynstat_theta_mean           =   3.2788895378857E+02
(PID.TID 0000.0001) %MON dynstat_theta_sd             =   9.0387622276809E+01
(PID.TID 0000.0001) %MON dynstat_theta_del2           =   6.4281353190378E-04
(PID.TID 0000.0001) %MON dynstat_salt_max             =   2.0321218392144E-02
(PID.TID 0000.0001) %MON dynstat_salt_min             =   0.0000000000000E+00
(PID.TID 0000.0001) %MON dynstat_salt_mean            =   1.8763865868636E-03
(PID.TID 0000.0001) %MON dynstat_salt_sd              =   3.8704746776743E-03
(PID.TID 0000.0001) %MON dynstat_salt_del2            =   8.1074480843122E-07
(PID.TID 0000.0001) %MON advcfl_uvel_max              =   8.1963594402193E-02
(PID.TID 0000.0001) %MON advcfl_vvel_max              =   8.1934159660030E-02
(PID.TID 0000.0001) %MON advcfl_wvel_max              =   1.0707300989503E-02
(PID.TID 0000.0001) %MON advcfl_W_hf_max              =   1.1546662706208E-02
(PID.TID 0000.0001) %MON am_eta_mean                  =  -1.4746424608804E+11
(PID.TID 0000.0001) %MON am_uZo_mean                  =   1.4723839668948E+11
(PID.TID 0000.0001) %MON am_tot_mean                  =  -2.2584939855704E+08
(PID.TID 0000.0001) %MON pe_b_mean                    =   1.3427111988255E+01
(PID.TID 0000.0001) %MON ke_max                       =   3.7053950447707E+02
(PID.TID 0000.0001) %MON ke_mean                      =   7.1403009033901E+01
(PID.TID 0000.0001) %MON ke_vol                       =   5.0986421042785E+19
(PID.TID 0000.0001) %MON vort_r_min                   =  -8.3717402648861E-06
(PID.TID 0000.0001) %MON vort_r_max                   =   8.3684426794360E-06
(PID.TID 0000.0001) %MON vort_a_mean                  =   5.3929813823273E-20
(PID.TID 0000.0001) %MON vort_a_sd                    =   8.4863444801503E-05
(PID.TID 0000.0001) %MON vort_p_mean                  =   5.1478408632057E-20
(PID.TID 0000.0001) %MON vort_p_sd                    =   8.4235565149680E-05
(PID.TID 0000.0001) %MON surfExpan_theta_mean         =  -4.6149506707282E+00
(PID.TID 0000.0001) %MON surfExpan_salt_mean          =  -4.4841574012797E-04
(PID.TID 0000.0001) %MON surfExpan_Heat_mean          =  -4.0932708293099E+02
(PID.TID 0000.0001) %MON En_Budget_T2PE_mean          =   5.5884153738238E+01
(PID.TID 0000.0001) // =======================================================
(PID.TID 0000.0001) // End MONITOR dynamic field statistics
(PID.TID 0000.0001) // =======================================================
(PID.TID 0000.0001)   Exporting atmospheric fluxes at iter.        24
(PID.TID 0000.0001)   Importing oceanic fields at iteration        24
 cg2d: Sum(rhs),rhsMax =  -1.67638063430786E-08  2.52648451140520E+04
(PID.TID 0000.0001)      cg2d_init_res =   6.50050984884435E+04
(PID.TID 0000.0001)      cg2d_iters(min,last) =      -1      14
(PID.TID 0000.0001)      cg2d_last_res =   9.06252469423591E-12
(PID.TID 0000.0001) // =======================================================
(PID.TID 0000.0001) // Begin MONITOR dynamic field statistics
(PID.TID 0000.0001) // =======================================================
(PID.TID 0000.0001) %MON time_tsnumber                =                    25
(PID.TID 0000.0001) %MON time_secondsf                =   9.0000000000000E+03
(PID.TID 0000.0001) %MON dynstat_eta_max              =   3.1658449697198E+03
(PID.TID 0000.0001) %MON dynstat_eta_min              =  -2.3834140974495E+03
(PID.TID 0000.0001) %MON dynstat_eta_mean             =  -5.9983552563933E-13
(PID.TID 0000.0001) %MON dynstat_eta_sd               =   1.9033464703048E+03
(PID.TID 0000.0001) %MON dynstat_eta_del2             =   6.5475540860924E-01
(PID.TID 0000.0001) %MON dynstat_uvel_max             =   2.7953140852346E+01
(PID.TID 0000.0001) %MON dynstat_uvel_min             =  -2.7951170740054E+01
(PID.TID 0000.0001) %MON dynstat_uvel_mean            =   8.2261900934607E-01
(PID.TID 0000.0001) %MON dynstat_uvel_sd              =   8.6461235591957E+00
(PID.TID 0000.0001) %MON dynstat_uvel_del2            =   1.6603359479392E-03
(PID.TID 0000.0001) %MON dynstat_vvel_max             =   2.7942754284522E+01
(PID.TID 0000.0001) %MON dynstat_vvel_min             =  -2.7918425917794E+01
(PID.TID 0000.0001) %MON dynstat_vvel_mean            =   8.3057257232465E-01
(PID.TID 0000.0001) %MON dynstat_vvel_sd              =   8.6455655598044E+00
(PID.TID 0000.0001) %MON dynstat_vvel_del2            =   1.6611848069675E-03
(PID.TID 0000.0001) %MON dynstat_wvel_max             =   2.6671789839824E-01
(PID.TID 0000.0001) %MON dynstat_wvel_min             =  -2.8045375922798E-01
(PID.TID 0000.0001) %MON dynstat_wvel_mean            =  -1.2579659586456E-16
(PID.TID 0000.0001) %MON dynstat_wvel_sd              =   8.6353050902860E-02
(PID.TID 0000.0001) %MON dynstat_wvel_del2            =   8.4447074470002E-05
(PID.TID 0000.0001) %MON dynstat_theta_max            =   1.1566038997633E+03
(PID.TID 0000.0001) %MON dynstat_theta_min            =   2.5754595970819E+02
(PID.TID 0000.0001) %MON dynstat_theta_mean           =   3.2788749555433E+02
(PID.TID 0000.0001) %MON dynstat_theta_sd             =   9.0390078659806E+01
(PID.TID 0000.0001) %MON dynstat_theta_del2           =   6.4717844366376E-04
(PID.TID 0000.0001) %MON dynstat_salt_max             =   2.0321484415273E-02
(PID.TID 0000.0001) %MON dynstat_salt_min             =   0.0000000000000E+00
(PID.TID 0000.0001) %MON dynstat_salt_mean            =   1.8797941937425E-03
(PID.TID 0000.0001) %MON dynstat_salt_sd              =   3.8748890650421E-03
(PID.TID 0000.0001) %MON dynstat_salt_del2            =   8.1633695558984E-07
(PID.TID 0000.0001) %MON advcfl_uvel_max              =   8.4582956747955E-02
(PID.TID 0000.0001) %MON advcfl_vvel_max              =   8.4553532135507E-02
(PID.TID 0000.0001) %MON advcfl_wvel_max              =   1.0809780869601E-02
(PID.TID 0000.0001) %MON advcfl_W_hf_max              =   1.1794957201445E-02
(PID.TID 0000.0001) %MON am_eta_mean                  =  -1.5824379079771E+11
(PID.TID 0000.0001) %MON am_uZo_mean                  =   1.5799192357806E+11
(PID.TID 0000.0001) %MON am_tot_mean                  =  -2.5186721964853E+08
(PID.TID 0000.0001) %MON pe_b_mean                    =   1.5343249148488E+01
(PID.TID 0000.0001) %MON ke_max                       =   3.9374771805835E+02
(PID.TID 0000.0001) %MON ke_mean                      =   7.5433904641160E+01
(PID.TID 0000.0001) %MON ke_vol                       =   5.0986421042784E+19
(PID.TID 0000.0001) %MON vort_r_min                   =  -8.9132049050601E-06
(PID.TID 0000.0001) %MON vort_r_max                   =   8.9093692626807E-06
(PID.TID 0000.0001) %MON vort_a_mean                  =  -2.7210042429015E-19
(PID.TID 0000.0001) %MON vort_a_sd                    =   8.4911679785815E-05
(PID.TID 0000.0001) %MON vort_p_mean                  =  -2.7210014087712E-19
(PID.TID 0000.0001) %MON vort_p_sd                    =   8.4237117472274E-05
(PID.TID 0000.0001) %MON surfExpan_theta_mean         =  -4.6566381624518E+00
(PID.TID 0000.0001) %MON surfExpan_salt_mean          =  -4.5448801452342E-04
(PID.TID 0000.0001) %MON surfExpan_Heat_mean          =  -4.1337035825573E+02
(PID.TID 0000.0001) %MON En_Budget_T2PE_mean          =   5.7302192191088E+01
(PID.TID 0000.0001) // =======================================================
(PID.TID 0000.0001) // End MONITOR dynamic field statistics
(PID.TID 0000.0001) // =======================================================
 cg2d: Sum(rhs),rhsMax =   6.51925802230835E-08  2.68836739135797E+04
(PID.TID 0000.0001)      cg2d_init_res =   6.56077758022505E+04
(PID.TID 0000.0001)      cg2d_iters(min,last) =      -1      14
(PID.TID 0000.0001)      cg2d_last_res =   9.63909744916687E-12
(PID.TID 0000.0001) // =======================================================
(PID.TID 0000.0001) // Begin MONITOR dynamic field statistics
(PID.TID 0000.0001) // =======================================================
(PID.TID 0000.0001) %MON time_tsnumber                =                    26
(PID.TID 0000.0001) %MON time_secondsf                =   9.3600000000000E+03
(PID.TID 0000.0001) %MON dynstat_eta_max              =   3.3707789284235E+03
(PID.TID 0000.0001) %MON dynstat_eta_min              =  -2.5377299488182E+03
(PID.TID 0000.0001) %MON dynstat_eta_mean             =  -5.9983552563933E-13
(PID.TID 0000.0001) %MON dynstat_eta_sd               =   2.0272980300943E+03
(PID.TID 0000.0001) %MON dynstat_eta_del2             =   6.7345011873744E-01
(PID.TID 0000.0001) %MON dynstat_uvel_max             =   2.8802745674301E+01
(PID.TID 0000.0001) %MON dynstat_uvel_min             =  -2.8800932499370E+01
(PID.TID 0000.0001) %MON dynstat_uvel_mean            =   8.7648445112430E-01
(PID.TID 0000.0001) %MON dynstat_uvel_sd              =   8.8662372319327E+00
(PID.TID 0000.0001) %MON dynstat_uvel_del2            =   1.6947145229619E-03
(PID.TID 0000.0001) %MON dynstat_vvel_max             =   2.8792373220099E+01
(PID.TID 0000.0001) %MON dynstat_vvel_min             =  -2.8765691613229E+01
(PID.TID 0000.0001) %MON dynstat_vvel_mean            =   8.8502163046498E-01
(PID.TID 0000.0001) %MON dynstat_vvel_sd              =   8.8655817103836E+00
(PID.TID 0000.0001) %MON dynstat_vvel_del2            =   1.6955731020728E-03
(PID.TID 0000.0001) %MON dynstat_wvel_max             =   2.7419643955179E-01
(PID.TID 0000.0001) %MON dynstat_wvel_min             =  -2.8217464990040E-01
(PID.TID 0000.0001) %MON dynstat_wvel_mean            =   4.0254910676659E-17
(PID.TID 0000.0001) %MON dynstat_wvel_sd              =   8.8760398790223E-02
(PID.TID 0000.0001) %MON dynstat_wvel_del2            =   8.6126303487195E-05
(PID.TID 0000.0001) %MON dynstat_theta_max            =   1.1567764771700E+03
(PID.TID 0000.0001) %MON dynstat_theta_min            =   2.5762223176760E+02
(PID.TID 0000.0001) %MON dynstat_theta_mean           =   3.2788584718727E+02
(PID.TID 0000.0001) %MON dynstat_theta_sd             =   9.0392669825890E+01
(PID.TID 0000.0001) %MON dynstat_theta_del2           =   6.5427344573942E-04
(PID.TID 0000.0001) %MON dynstat_salt_max             =   2.0321752323141E-02
(PID.TID 0000.0001) %MON dynstat_salt_min             =   0.0000000000000E+00
(PID.TID 0000.0001) %MON dynstat_salt_mean            =   1.8832861353825E-03
(PID.TID 0000.0001) %MON dynstat_salt_sd              =   3.8795979218533E-03
(PID.TID 0000.0001) %MON dynstat_salt_del2            =   8.2206308441643E-07
(PID.TID 0000.0001) %MON advcfl_uvel_max              =   8.7085718172708E-02
(PID.TID 0000.0001) %MON advcfl_vvel_max              =   8.7056407979189E-02
(PID.TID 0000.0001) %MON advcfl_wvel_max              =   1.0894392078312E-02
(PID.TID 0000.0001) %MON advcfl_W_hf_max              =   1.2013920596567E-02
(PID.TID 0000.0001) %MON am_eta_mean                  =  -1.6915537805551E+11
(PID.TID 0000.0001) %MON am_uZo_mean                  =   1.6887634211471E+11
(PID.TID 0000.0001) %MON am_tot_mean                  =  -2.7903594080026E+08
(PID.TID 0000.0001) %MON pe_b_mean                    =   1.7406715532207E+01
(PID.TID 0000.0001) %MON ke_max                       =   4.1679508175902E+02
(PID.TID 0000.0001) %MON ke_mean                      =   7.9380094997972E+01
(PID.TID 0000.0001) %MON ke_vol                       =   5.0986421042785E+19
(PID.TID 0000.0001) %MON vort_r_min                   =  -9.4565229499386E-06
(PID.TID 0000.0001) %MON vort_r_max                   =   9.4521450179081E-06
(PID.TID 0000.0001) %MON vort_a_mean                  =  -2.5494093807366E-19
(PID.TID 0000.0001) %MON vort_a_sd                    =   8.4960633097636E-05
(PID.TID 0000.0001) %MON vort_p_mean                  =  -2.5494065443159E-19
(PID.TID 0000.0001) %MON vort_p_sd                    =   8.4238712407485E-05
(PID.TID 0000.0001) %MON surfExpan_theta_mean         =  -4.6840045745965E+00
(PID.TID 0000.0001) %MON surfExpan_salt_mean          =  -4.5929499216761E-04
(PID.TID 0000.0001) %MON surfExpan_Heat_mean          =  -4.1615299586419E+02
(PID.TID 0000.0001) %MON En_Budget_T2PE_mean          =   5.8630283172954E+01
(PID.TID 0000.0001) // =======================================================
(PID.TID 0000.0001) // End MONITOR dynamic field statistics
(PID.TID 0000.0001) // =======================================================
 cg2d: Sum(rhs),rhsMax =   2.60770320892334E-08  2.85212801869591E+04
(PID.TID 0000.0001)      cg2d_init_res =   6.60170495993327E+04
(PID.TID 0000.0001)      cg2d_iters(min,last) =      -1      14
(PID.TID 0000.0001)      cg2d_last_res =   1.02479530100537E-11
(PID.TID 0000.0001) // =======================================================
(PID.TID 0000.0001) // Begin MONITOR dynamic field statistics
(PID.TID 0000.0001) // =======================================================
(PID.TID 0000.0001) %MON time_tsnumber                =                    27
(PID.TID 0000.0001) %MON time_secondsf                =   9.7200000000000E+03
(PID.TID 0000.0001) %MON dynstat_eta_max              =   3.5768436505589E+03
(PID.TID 0000.0001) %MON dynstat_eta_min              =  -2.6930011028522E+03
(PID.TID 0000.0001) %MON dynstat_eta_mean             =  -1.3710526300327E-12
(PID.TID 0000.0001) %MON dynstat_eta_sd               =   2.1520242332502E+03
(PID.TID 0000.0001) %MON dynstat_eta_del2             =   6.9159466922972E-01
(PID.TID 0000.0001) %MON dynstat_uvel_max             =   2.9615175164141E+01
(PID.TID 0000.0001) %MON dynstat_uvel_min             =  -2.9613563237134E+01
(PID.TID 0000.0001) %MON dynstat_uvel_mean            =   9.3062591431617E-01
(PID.TID 0000.0001) %MON dynstat_uvel_sd              =   9.0752872502294E+00
(PID.TID 0000.0001) %MON dynstat_uvel_del2            =   1.7266909729827E-03
(PID.TID 0000.0001) %MON dynstat_vvel_max             =   2.9604841901598E+01
(PID.TID 0000.0001) %MON dynstat_vvel_min             =  -2.9575855780566E+01
(PID.TID 0000.0001) %MON dynstat_vvel_mean            =   9.3975875032674E-01
(PID.TID 0000.0001) %MON dynstat_vvel_sd              =   9.0745248781820E+00
(PID.TID 0000.0001) %MON dynstat_vvel_del2            =   1.7275356289463E-03
(PID.TID 0000.0001) %MON dynstat_wvel_max             =   2.8103745907155E-01
(PID.TID 0000.0001) %MON dynstat_wvel_min             =  -2.8299500338031E-01
(PID.TID 0000.0001) %MON dynstat_wvel_mean            =  -1.5095591503747E-17
(PID.TID 0000.0001) %MON dynstat_wvel_sd              =   9.1065709279208E-02
(PID.TID 0000.0001) %MON dynstat_wvel_del2            =   8.7657336778947E-05
(PID.TID 0000.0001) %MON dynstat_theta_max            =   1.1569269566256E+03
(PID.TID 0000.0001) %MON dynstat_theta_min            =   2.5769634164280E+02
(PID.TID 0000.0001) %MON dynstat_theta_mean           =   3.2788401433829E+02
(PID.TID 0000.0001) %MON dynstat_theta_sd             =   9.0395386422830E+01
(PID.TID 0000.0001) %MON dynstat_theta_del2           =   6.6344508401437E-04
(PID.TID 0000.0001) %MON dynstat_salt_max             =   2.0322022298055E-02
(PID.TID 0000.0001) %MON dynstat_salt_min             =   0.0000000000000E+00
(PID.TID 0000.0001) %MON dynstat_salt_mean            =   1.8868788638283E-03
(PID.TID 0000.0001) %MON dynstat_salt_sd              =   3.8846415344526E-03
(PID.TID 0000.0001) %MON dynstat_salt_del2            =   8.2742635141463E-07
(PID.TID 0000.0001) %MON advcfl_uvel_max              =   8.9467454509863E-02
(PID.TID 0000.0001) %MON advcfl_vvel_max              =   8.9438311583595E-02
(PID.TID 0000.0001) %MON advcfl_wvel_max              =   1.0967981801521E-02
(PID.TID 0000.0001) %MON advcfl_W_hf_max              =   1.2204275158884E-02
(PID.TID 0000.0001) %MON am_eta_mean                  =  -1.8016633588168E+11
(PID.TID 0000.0001) %MON am_uZo_mean                  =   1.7985911129999E+11
(PID.TID 0000.0001) %MON am_tot_mean                  =  -3.0722458168726E+08
(PID.TID 0000.0001) %MON pe_b_mean                    =   1.9614441661126E+01
(PID.TID 0000.0001) %MON ke_max                       =   4.3959844734805E+02
(PID.TID 0000.0001) %MON ke_mean                      =   8.3228525770096E+01
(PID.TID 0000.0001) %MON ke_vol                       =   5.0986421042785E+19
(PID.TID 0000.0001) %MON vort_r_min                   =  -9.9998170045987E-06
(PID.TID 0000.0001) %MON vort_r_max                   =   9.9948980306702E-06
(PID.TID 0000.0001) %MON vort_a_mean                  =   4.6575748301918E-20
(PID.TID 0000.0001) %MON vort_a_sd                    =   8.5010170456760E-05
(PID.TID 0000.0001) %MON vort_p_mean                  =   5.1478397662456E-20
(PID.TID 0000.0001) %MON vort_p_sd                    =   8.4240355223195E-05
(PID.TID 0000.0001) %MON surfExpan_theta_mean         =  -4.6970902656891E+00
(PID.TID 0000.0001) %MON surfExpan_salt_mean          =  -4.6282834695767E-04
(PID.TID 0000.0001) %MON surfExpan_Heat_mean          =  -4.1767461259901E+02
(PID.TID 0000.0001) %MON En_Budget_T2PE_mean          =   5.9867698769629E+01
(PID.TID 0000.0001) // =======================================================
(PID.TID 0000.0001) // End MONITOR dynamic field statistics
(PID.TID 0000.0001) // =======================================================
 cg2d: Sum(rhs),rhsMax =   3.72529029846191E-09  3.01723778655052E+04
(PID.TID 0000.0001)      cg2d_init_res =   6.62321578991043E+04
(PID.TID 0000.0001)      cg2d_iters(min,last) =      -1      14
(PID.TID 0000.0001)      cg2d_last_res =   1.08864230299099E-11
(PID.TID 0000.0001) // =======================================================
(PID.TID 0000.0001) // Begin MONITOR dynamic field statistics
(PID.TID 0000.0001) // =======================================================
(PID.TID 0000.0001) %MON time_tsnumber                =                    28
(PID.TID 0000.0001) %MON time_secondsf                =   1.0080000000000E+04
(PID.TID 0000.0001) %MON dynstat_eta_max              =   3.7834162859561E+03
(PID.TID 0000.0001) %MON dynstat_eta_min              =  -2.8488575372748E+03
(PID.TID 0000.0001) %MON dynstat_eta_mean             =  -1.5424342087868E-12
(PID.TID 0000.0001) %MON dynstat_eta_sd               =   2.2771582436013E+03
(PID.TID 0000.0001) %MON dynstat_eta_del2             =   7.0917639590419E-01
(PID.TID 0000.0001) %MON dynstat_uvel_max             =   3.0389005952155E+01
(PID.TID 0000.0001) %MON dynstat_uvel_min             =  -3.0387625201769E+01
(PID.TID 0000.0001) %MON dynstat_uvel_mean            =   9.8488305960662E-01
(PID.TID 0000.0001) %MON dynstat_uvel_sd              =   9.2734230686071E+00
(PID.TID 0000.0001) %MON dynstat_uvel_del2            =   1.7563783316960E-03
(PID.TID 0000.0001) %MON dynstat_vvel_max             =   3.0378722351107E+01
(PID.TID 0000.0001) %MON dynstat_vvel_min             =  -3.0347490763204E+01
(PID.TID 0000.0001) %MON dynstat_vvel_mean            =   9.9462296213961E-01
(PID.TID 0000.0001) %MON dynstat_vvel_sd              =   9.2725453846359E+00
(PID.TID 0000.0001) %MON dynstat_vvel_del2            =   1.7572041159815E-03
(PID.TID 0000.0001) %MON dynstat_wvel_max             =   2.8723925320785E-01
(PID.TID 0000.0001) %MON dynstat_wvel_min             =  -2.8295720286999E-01
(PID.TID 0000.0001) %MON dynstat_wvel_mean            =  -1.9121082571413E-16
(PID.TID 0000.0001) %MON dynstat_wvel_sd              =   9.3267851345556E-02
(PID.TID 0000.0001) %MON dynstat_wvel_del2            =   8.9045742330400E-05
(PID.TID 0000.0001) %MON dynstat_theta_max            =   1.1570565221763E+03
(PID.TID 0000.0001) %MON dynstat_theta_min            =   2.5776832263929E+02
(PID.TID 0000.0001) %MON dynstat_theta_mean           =   3.2788200139795E+02
(PID.TID 0000.0001) %MON dynstat_theta_sd             =   9.0398220430033E+01
(PID.TID 0000.0001) %MON dynstat_theta_del2           =   6.7365410387681E-04
(PID.TID 0000.0001) %MON dynstat_salt_max             =   2.0322294539118E-02
(PID.TID 0000.0001) %MON dynstat_salt_min             =   0.0000000000000E+00
(PID.TID 0000.0001) %MON dynstat_salt_mean            =   1.8905870385710E-03
(PID.TID 0000.0001) %MON dynstat_salt_sd              =   3.8900509709132E-03
(PID.TID 0000.0001) %MON dynstat_salt_del2            =   8.3210075176614E-07
(PID.TID 0000.0001) %MON advcfl_uvel_max              =   9.1724000475491E-02
(PID.TID 0000.0001) %MON advcfl_vvel_max              =   9.1695031750375E-02
(PID.TID 0000.0001) %MON advcfl_wvel_max              =   1.1071320252123E-02
(PID.TID 0000.0001) %MON advcfl_W_hf_max              =   1.2355201784711E-02
(PID.TID 0000.0001) %MON am_eta_mean                  =  -1.9124371533849E+11
(PID.TID 0000.0001) %MON am_uZo_mean                  =   1.9090743343251E+11
(PID.TID 0000.0001) %MON am_tot_mean                  =  -3.3628190598431E+08
(PID.TID 0000.0001) %MON pe_b_mean                    =   2.1961806372958E+01
(PID.TID 0000.0001) %MON ke_max                       =   4.6207845787317E+02
(PID.TID 0000.0001) %MON ke_mean                      =   8.6967871398723E+01
(PID.TID 0000.0001) %MON ke_vol                       =   5.0986421042785E+19
(PID.TID 0000.0001) %MON vort_r_min                   =  -1.0541192164240E-05
(PID.TID 0000.0001) %MON vort_r_max                   =   1.0535738920820E-05
(PID.TID 0000.0001) %MON vort_a_mean                  =  -9.8054206951406E-21
(PID.TID 0000.0001) %MON vort_a_sd                    =   8.5060154239693E-05
(PID.TID 0000.0001) %MON vort_p_mean                  =  -9.8054083590672E-21
(PID.TID 0000.0001) %MON vort_p_sd                    =   8.4242050428182E-05
(PID.TID 0000.0001) %MON surfExpan_theta_mean         =  -4.6959803086152E+00
(PID.TID 0000.0001) %MON surfExpan_salt_mean          =  -4.6508141575037E-04
(PID.TID 0000.0001) %MON surfExpan_Heat_mean          =  -4.1793872117106E+02
(PID.TID 0000.0001) %MON En_Budget_T2PE_mean          =   6.1013923811920E+01
(PID.TID 0000.0001) // =======================================================
(PID.TID 0000.0001) // End MONITOR dynamic field statistics
(PID.TID 0000.0001) // =======================================================
 cg2d: Sum(rhs),rhsMax =  -2.60770320892334E-08  3.18307706678753E+04
(PID.TID 0000.0001)      cg2d_init_res =   6.62529582508036E+04
(PID.TID 0000.0001)      cg2d_iters(min,last) =      -1      14
(PID.TID 0000.0001)      cg2d_last_res =   1.15516073835176E-11
(PID.TID 0000.0001) // =======================================================
(PID.TID 0000.0001) // Begin MONITOR dynamic field statistics
(PID.TID 0000.0001) // =======================================================
(PID.TID 0000.0001) %MON time_tsnumber                =                    29
(PID.TID 0000.0001) %MON time_secondsf                =   1.0440000000000E+04
(PID.TID 0000.0001) %MON dynstat_eta_max              =   3.9898284375121E+03
(PID.TID 0000.0001) %MON dynstat_eta_min              =  -3.0049397545405E+03
(PID.TID 0000.0001) %MON dynstat_eta_mean             =  -3.4276315750819E-13
(PID.TID 0000.0001) %MON dynstat_eta_sd               =   2.4023328069000E+03
(PID.TID 0000.0001) %MON dynstat_eta_del2             =   7.2616622267852E-01
(PID.TID 0000.0001) %MON dynstat_uvel_max             =   3.1122907066900E+01
(PID.TID 0000.0001) %MON dynstat_uvel_min             =  -3.1121774901003E+01
(PID.TID 0000.0001) %MON dynstat_uvel_mean            =   1.0390965731888E+00
(PID.TID 0000.0001) %MON dynstat_uvel_sd              =   9.4608324147021E+00
(PID.TID 0000.0001) %MON dynstat_uvel_del2            =   1.7839314300513E-03
(PID.TID 0000.0001) %MON dynstat_vvel_max             =   3.1112672351146E+01
(PID.TID 0000.0001) %MON dynstat_vvel_min             =  -3.1079260925091E+01
(PID.TID 0000.0001) %MON dynstat_vvel_mean            =   1.0494545349082E+00
(PID.TID 0000.0001) %MON dynstat_vvel_sd              =   9.4598322360563E+00
(PID.TID 0000.0001) %MON dynstat_vvel_del2            =   1.7847157818333E-03
(PID.TID 0000.0001) %MON dynstat_wvel_max             =   2.9280899800947E-01
(PID.TID 0000.0001) %MON dynstat_wvel_min             =  -2.8321341337086E-01
(PID.TID 0000.0001) %MON dynstat_wvel_mean            =   1.1070100436081E-16
(PID.TID 0000.0001) %MON dynstat_wvel_sd              =   9.5366286551044E-02
(PID.TID 0000.0001) %MON dynstat_wvel_del2            =   9.0297992632227E-05
(PID.TID 0000.0001) %MON dynstat_theta_max            =   1.1571649294690E+03
(PID.TID 0000.0001) %MON dynstat_theta_min            =   2.5783821010676E+02
(PID.TID 0000.0001) %MON dynstat_theta_mean           =   3.2787981472131E+02
(PID.TID 0000.0001) %MON dynstat_theta_sd             =   9.0401162771562E+01
(PID.TID 0000.0001) %MON dynstat_theta_del2           =   6.8371791857617E-04
(PID.TID 0000.0001) %MON dynstat_salt_max             =   2.0322569261994E-02
(PID.TID 0000.0001) %MON dynstat_salt_min             =   0.0000000000000E+00
(PID.TID 0000.0001) %MON dynstat_salt_mean            =   1.8944229202791E-03
(PID.TID 0000.0001) %MON dynstat_salt_sd              =   3.8958571264942E-03
(PID.TID 0000.0001) %MON dynstat_salt_del2            =   8.3660015960493E-07
(PID.TID 0000.0001) %MON advcfl_uvel_max              =   9.3887548915920E-02
(PID.TID 0000.0001) %MON advcfl_vvel_max              =   9.3857077453571E-02
(PID.TID 0000.0001) %MON advcfl_wvel_max              =   1.1285999923277E-02
(PID.TID 0000.0001) %MON advcfl_W_hf_max              =   1.2480260651329E-02
(PID.TID 0000.0001) %MON am_eta_mean                  =  -2.0235438678295E+11
(PID.TID 0000.0001) %MON am_uZo_mean                  =   2.0198835180005E+11
(PID.TID 0000.0001) %MON am_tot_mean                  =  -3.6603498289481E+08
(PID.TID 0000.0001) %MON pe_b_mean                    =   2.4442632580526E+01
(PID.TID 0000.0001) %MON ke_max                       =   4.8416050480381E+02
(PID.TID 0000.0001) %MON ke_mean                      =   9.0588426211327E+01
(PID.TID 0000.0001) %MON ke_vol                       =   5.0986421042785E+19
(PID.TID 0000.0001) %MON vort_r_min                   =  -1.1078752157633E-05
(PID.TID 0000.0001) %MON vort_r_max                   =   1.1072776219193E-05
(PID.TID 0000.0001) %MON vort_a_mean                  =  -8.5797431082480E-20
(PID.TID 0000.0001) %MON vort_a_sd                    =   8.5110443823716E-05
(PID.TID 0000.0001) %MON vort_p_mean                  =  -8.3345964819910E-20
(PID.TID 0000.0001) %MON vort_p_sd                    =   8.4243801730199E-05
(PID.TID 0000.0001) %MON surfExpan_theta_mean         =  -4.6808013778858E+00
(PID.TID 0000.0001) %MON surfExpan_salt_mean          =  -4.6605014534861E-04
(PID.TID 0000.0001) %MON surfExpan_Heat_mean          =  -4.1695252173246E+02
(PID.TID 0000.0001) %MON En_Budget_T2PE_mean          =   6.2068527376820E+01
(PID.TID 0000.0001) // =======================================================
(PID.TID 0000.0001) // End MONITOR dynamic field statistics
(PID.TID 0000.0001) // =======================================================
 cg2d: Sum(rhs),rhsMax =   3.72529029846191E-09  3.34895251003603E+04
(PID.TID 0000.0001)      cg2d_init_res =   6.60799325367134E+04
(PID.TID 0000.0001)      cg2d_iters(min,last) =      -1      14
(PID.TID 0000.0001)      cg2d_last_res =   1.22394358444802E-11
(PID.TID 0000.0001) // =======================================================
(PID.TID 0000.0001) // Begin MONITOR dynamic field statistics
(PID.TID 0000.0001) // =======================================================
(PID.TID 0000.0001) %MON time_tsnumber                =                    30
(PID.TID 0000.0001) %MON time_secondsf                =   1.0800000000000E+04
(PID.TID 0000.0001) %MON dynstat_eta_max              =   4.1954617501660E+03
(PID.TID 0000.0001) %MON dynstat_eta_min              =  -3.1608937422135E+03
(PID.TID 0000.0001) %MON dynstat_eta_mean             =  -2.5707236813114E-13
(PID.TID 0000.0001) %MON dynstat_eta_sd               =   2.5271813416226E+03
(PID.TID 0000.0001) %MON dynstat_eta_del2             =   7.4253154713280E-01
(PID.TID 0000.0001) %MON dynstat_uvel_max             =   3.1815665759069E+01
(PID.TID 0000.0001) %MON dynstat_uvel_min             =  -3.1814789628665E+01
(PID.TID 0000.0001) %MON dynstat_uvel_mean            =   1.0931089813654E+00
(PID.TID 0000.0001) %MON dynstat_uvel_sd              =   9.6377557637319E+00
(PID.TID 0000.0001) %MON dynstat_uvel_del2            =   1.8095307405504E-03
(PID.TID 0000.0001) %MON dynstat_vvel_max             =   3.1805469222730E+01
(PID.TID 0000.0001) %MON dynstat_vvel_min             =  -3.1769941757177E+01
(PID.TID 0000.0001) %MON dynstat_vvel_mean            =   1.1040952526997E+00
(PID.TID 0000.0001) %MON dynstat_vvel_sd              =   9.6366262394100E+00
(PID.TID 0000.0001) %MON dynstat_vvel_del2            =   1.8102628858527E-03
(PID.TID 0000.0001) %MON dynstat_wvel_max             =   2.9776495624990E-01
(PID.TID 0000.0001) %MON dynstat_wvel_min             =  -2.8279511313053E-01
(PID.TID 0000.0001) %MON dynstat_wvel_mean            =  -2.7675251090203E-17
(PID.TID 0000.0001) %MON dynstat_wvel_sd              =   9.7360485793839E-02
(PID.TID 0000.0001) %MON dynstat_wvel_del2            =   9.1423820240822E-05
(PID.TID 0000.0001) %MON dynstat_theta_max            =   1.1572627567180E+03
(PID.TID 0000.0001) %MON dynstat_theta_min            =   2.5790604386072E+02
(PID.TID 0000.0001) %MON dynstat_theta_mean           =   3.2787745878171E+02
(PID.TID 0000.0001) %MON dynstat_theta_sd             =   9.0404205758600E+01
(PID.TID 0000.0001) %MON dynstat_theta_del2           =   6.9256406468240E-04
(PID.TID 0000.0001) %MON dynstat_salt_max             =   2.0455126227308E-02
(PID.TID 0000.0001) %MON dynstat_salt_min             =   0.0000000000000E+00
(PID.TID 0000.0001) %MON dynstat_salt_mean            =   1.8983965889817E-03
(PID.TID 0000.0001) %MON dynstat_salt_sd              =   3.9020809826205E-03
(PID.TID 0000.0001) %MON dynstat_salt_del2            =   8.4036616224143E-07
(PID.TID 0000.0001) %MON advcfl_uvel_max              =   9.5998608318119E-02
(PID.TID 0000.0001) %MON advcfl_vvel_max              =   9.5968268087149E-02
(PID.TID 0000.0001) %MON advcfl_wvel_max              =   1.1477021868304E-02
(PID.TID 0000.0001) %MON advcfl_W_hf_max              =   1.2766460372456E-02
(PID.TID 0000.0001) %MON am_eta_mean                  =  -2.1346513746650E+11
(PID.TID 0000.0001) %MON am_uZo_mean                  =   2.1306884784953E+11
(PID.TID 0000.0001) %MON am_tot_mean                  =  -3.9628961696790E+08
(PID.TID 0000.0001) %MON pe_b_mean                    =   2.7049201438991E+01
(PID.TID 0000.0001) %MON ke_max                       =   5.0577562443920E+02
(PID.TID 0000.0001) %MON ke_mean                      =   9.4082407505789E+01
(PID.TID 0000.0001) %MON ke_vol                       =   5.0986421042785E+19
(PID.TID 0000.0001) %MON vort_r_min                   =  -1.1610613378015E-05
(PID.TID 0000.0001) %MON vort_r_max                   =   1.1604130588298E-05
(PID.TID 0000.0001) %MON vort_a_mean                  =   7.5992010387339E-20
(PID.TID 0000.0001) %MON vort_a_sd                    =   8.5160897962538E-05
(PID.TID 0000.0001) %MON vort_p_mean                  =   7.3540551580217E-20
(PID.TID 0000.0001) %MON vort_p_sd                    =   8.4245613946754E-05
(PID.TID 0000.0001) %MON surfExpan_theta_mean         =  -4.6517225133752E+00
(PID.TID 0000.0001) %MON surfExpan_salt_mean          =  -4.6573246398895E-04
(PID.TID 0000.0001) %MON surfExpan_Heat_mean          =  -4.1472697830903E+02
(PID.TID 0000.0001) %MON En_Budget_T2PE_mean          =   6.3031352129366E+01
(PID.TID 0000.0001) // =======================================================
(PID.TID 0000.0001) // End MONITOR dynamic field statistics
(PID.TID 0000.0001) // =======================================================
 cg2d: Sum(rhs),rhsMax =  -3.72529029846191E-08  3.51412234857354E+04
(PID.TID 0000.0001)      cg2d_init_res =   6.57141961224289E+04
(PID.TID 0000.0001)      cg2d_iters(min,last) =      -1      14
(PID.TID 0000.0001)      cg2d_last_res =   1.29460602981250E-11
(PID.TID 0000.0001) // =======================================================
(PID.TID 0000.0001) // Begin MONITOR dynamic field statistics
(PID.TID 0000.0001) // =======================================================
(PID.TID 0000.0001) %MON time_tsnumber                =                    31
(PID.TID 0000.0001) %MON time_secondsf                =   1.1160000000000E+04
(PID.TID 0000.0001) %MON dynstat_eta_max              =   4.3996914418534E+03
(PID.TID 0000.0001) %MON dynstat_eta_min              =  -3.3163659138891E+03
(PID.TID 0000.0001) %MON dynstat_eta_mean             =   1.1139802619016E-12
(PID.TID 0000.0001) %MON dynstat_eta_sd               =   2.6513390377934E+03
(PID.TID 0000.0001) %MON dynstat_eta_del2             =   7.5824319388170E-01
(PID.TID 0000.0001) %MON dynstat_uvel_max             =   3.2466208906548E+01
(PID.TID 0000.0001) %MON dynstat_uvel_min             =  -3.2465587864068E+01
(PID.TID 0000.0001) %MON dynstat_uvel_mean            =   1.1467652269496E+00
(PID.TID 0000.0001) %MON dynstat_uvel_sd              =   9.8044656894486E+00
(PID.TID 0000.0001) %MON dynstat_uvel_del2            =   1.8333317887544E-03
(PID.TID 0000.0001) %MON dynstat_vvel_max             =   3.2456033380057E+01
(PID.TID 0000.0001) %MON dynstat_vvel_min             =  -3.2418454438467E+01
(PID.TID 0000.0001) %MON dynstat_vvel_mean            =   1.1583892075982E+00
(PID.TID 0000.0001) %MON dynstat_vvel_sd              =   9.8032009669750E+00
(PID.TID 0000.0001) %MON dynstat_vvel_del2            =   1.8339950907438E-03
(PID.TID 0000.0001) %MON dynstat_wvel_max             =   3.0213923385393E-01
(PID.TID 0000.0001) %MON dynstat_wvel_min             =  -2.8167431894841E-01
(PID.TID 0000.0001) %MON dynstat_wvel_mean            =   1.5095591503747E-17
(PID.TID 0000.0001) %MON dynstat_wvel_sd              =   9.9250618403078E-02
(PID.TID 0000.0001) %MON dynstat_wvel_del2            =   9.2431418787018E-05
(PID.TID 0000.0001) %MON dynstat_theta_max            =   1.1573289203288E+03
(PID.TID 0000.0001) %MON dynstat_theta_min            =   2.5797186918010E+02
(PID.TID 0000.0001) %MON dynstat_theta_mean           =   3.2787493963144E+02
(PID.TID 0000.0001) %MON dynstat_theta_sd             =   9.0407341298097E+01
(PID.TID 0000.0001) %MON dynstat_theta_del2           =   6.9935967972532E-04
(PID.TID 0000.0001) %MON dynstat_salt_max             =   2.0710722654336E-02
(PID.TID 0000.0001) %MON dynstat_salt_min             =   0.0000000000000E+00
(PID.TID 0000.0001) %MON dynstat_salt_mean            =   1.9025160558270E-03
(PID.TID 0000.0001) %MON dynstat_salt_sd              =   3.9087401933028E-03
(PID.TID 0000.0001) %MON dynstat_salt_del2            =   8.4386341651403E-07
(PID.TID 0000.0001) %MON advcfl_uvel_max              =   9.7983328194878E-02
(PID.TID 0000.0001) %MON advcfl_vvel_max              =   9.7953061050325E-02
(PID.TID 0000.0001) %MON advcfl_wvel_max              =   1.1645623574670E-02
(PID.TID 0000.0001) %MON advcfl_W_hf_max              =   1.3142287439254E-02
(PID.TID 0000.0001) %MON am_eta_mean                  =  -2.2454276963530E+11
(PID.TID 0000.0001) %MON am_uZo_mean                  =   2.2411594185529E+11
(PID.TID 0000.0001) %MON am_tot_mean                  =  -4.2682778001282E+08
(PID.TID 0000.0001) %MON pe_b_mean                    =   2.9772285011801E+01
(PID.TID 0000.0001) %MON ke_max                       =   5.2686125416856E+02
(PID.TID 0000.0001) %MON ke_mean                      =   9.7443616348223E+01
(PID.TID 0000.0001) %MON ke_vol                       =   5.0986421042785E+19
(PID.TID 0000.0001) %MON vort_r_min                   =  -1.2134915492192E-05
(PID.TID 0000.0001) %MON vort_r_max                   =   1.2127945240971E-05
(PID.TID 0000.0001) %MON vort_a_mean                  =  -1.2747046903683E-19
(PID.TID 0000.0001) %MON vort_a_sd                    =   8.5211371791594E-05
(PID.TID 0000.0001) %MON vort_p_mean                  =  -1.2747027945490E-19
(PID.TID 0000.0001) %MON vort_p_sd                    =   8.4247489654111E-05
(PID.TID 0000.0001) %MON surfExpan_theta_mean         =  -4.6089523778105E+00
(PID.TID 0000.0001) %MON surfExpan_salt_mean          =  -4.6412879026334E-04
(PID.TID 0000.0001) %MON surfExpan_Heat_mean          =  -4.1127665603825E+02
(PID.TID 0000.0001) %MON En_Budget_T2PE_mean          =   6.3902276879535E+01
(PID.TID 0000.0001) // =======================================================
(PID.TID 0000.0001) // End MONITOR dynamic field statistics
(PID.TID 0000.0001) // =======================================================
 cg2d: Sum(rhs),rhsMax =  -4.84287738800049E-08  3.67782550643380E+04
(PID.TID 0000.0001)      cg2d_init_res =   6.51574873122567E+04
(PID.TID 0000.0001)      cg2d_iters(min,last) =      -1      14
(PID.TID 0000.0001)      cg2d_last_res =   1.36670665678276E-11
(PID.TID 0000.0001) // =======================================================
(PID.TID 0000.0001) // Begin MONITOR dynamic field statistics
(PID.TID 0000.0001) // =======================================================
(PID.TID 0000.0001) %MON time_tsnumber                =                    32
(PID.TID 0000.0001) %MON time_secondsf                =   1.1520000000000E+04
(PID.TID 0000.0001) %MON dynstat_eta_max              =   4.6018756990893E+03
(PID.TID 0000.0001) %MON dynstat_eta_min              =  -3.4709988845383E+03
(PID.TID 0000.0001) %MON dynstat_eta_mean             =   6.8552631501637E-13
(PID.TID 0000.0001) %MON dynstat_eta_sd               =   2.7744439488189E+03
(PID.TID 0000.0001) %MON dynstat_eta_del2             =   7.7328311306025E-01
(PID.TID 0000.0001) %MON dynstat_uvel_max             =   3.3073611214177E+01
(PID.TID 0000.0001) %MON dynstat_uvel_min             =  -3.3073240996855E+01
(PID.TID 0000.0001) %MON dynstat_uvel_mean            =   1.1999128086268E+00
(PID.TID 0000.0001) %MON dynstat_uvel_sd              =   9.9612783153144E+00
(PID.TID 0000.0001) %MON dynstat_uvel_del2            =   1.8555007559520E-03
(PID.TID 0000.0001) %MON dynstat_vvel_max             =   3.3063437655797E+01
(PID.TID 0000.0001) %MON dynstat_vvel_min             =  -3.3023864846086E+01
(PID.TID 0000.0001) %MON dynstat_vvel_mean            =   1.2121828607447E+00
(PID.TID 0000.0001) %MON dynstat_vvel_sd              =   9.9598739281592E+00
(PID.TID 0000.0001) %MON dynstat_vvel_del2            =   1.8560741151095E-03
(PID.TID 0000.0001) %MON dynstat_wvel_max             =   3.0597709300438E-01
(PID.TID 0000.0001) %MON dynstat_wvel_min             =  -2.7987958412603E-01
(PID.TID 0000.0001) %MON dynstat_wvel_mean            =   7.2962025601444E-17
(PID.TID 0000.0001) %MON dynstat_wvel_sd              =   1.0103707934819E-01
(PID.TID 0000.0001) %MON dynstat_wvel_del2            =   9.3330835047382E-05
(PID.TID 0000.0001) %MON dynstat_theta_max            =   1.1573625713074E+03
(PID.TID 0000.0001) %MON dynstat_theta_min            =   2.5803573682445E+02
(PID.TID 0000.0001) %MON dynstat_theta_mean           =   3.2787226504029E+02
(PID.TID 0000.0001) %MON dynstat_theta_sd             =   9.0410560471380E+01
(PID.TID 0000.0001) %MON dynstat_theta_del2           =   7.0364788139691E-04
(PID.TID 0000.0001) %MON dynstat_salt_max             =   2.0955793570630E-02
(PID.TID 0000.0001) %MON dynstat_salt_min             =   0.0000000000000E+00
(PID.TID 0000.0001) %MON dynstat_salt_mean            =   1.9067870057686E-03
(PID.TID 0000.0001) %MON dynstat_salt_sd              =   3.9158496485147E-03
(PID.TID 0000.0001) %MON dynstat_salt_del2            =   8.4788266569178E-07
(PID.TID 0000.0001) %MON advcfl_uvel_max              =   9.9838793503568E-02
(PID.TID 0000.0001) %MON advcfl_vvel_max              =   9.9808534116917E-02
(PID.TID 0000.0001) %MON advcfl_wvel_max              =   1.1793549623295E-02
(PID.TID 0000.0001) %MON advcfl_W_hf_max              =   1.3504723567119E-02
(PID.TID 0000.0001) %MON am_eta_mean                  =  -2.3555419956596E+11
(PID.TID 0000.0001) %MON am_uZo_mean                  =   2.3509679373759E+11
(PID.TID 0000.0001) %MON am_tot_mean                  =  -4.5740582836716E+08
(PID.TID 0000.0001) %MON pe_b_mean                    =   3.2601196981252E+01
(PID.TID 0000.0001) %MON ke_max                       =   5.4736176671176E+02
(PID.TID 0000.0001) %MON ke_mean                      =   1.0066766618805E+02
(PID.TID 0000.0001) %MON ke_vol                       =   5.0986421042785E+19
(PID.TID 0000.0001) %MON vort_r_min                   =  -1.2649833617449E-05
(PID.TID 0000.0001) %MON vort_r_max                   =   1.2642396271222E-05
(PID.TID 0000.0001) %MON vort_a_mean                  =  -5.1478458649488E-20
(PID.TID 0000.0001) %MON vort_a_sd                    =   8.5261719104843E-05
(PID.TID 0000.0001) %MON vort_p_mean                  =  -5.1478377972029E-20
(PID.TID 0000.0001) %MON vort_p_sd                    =   8.4249430967631E-05
(PID.TID 0000.0001) %MON surfExpan_theta_mean         =  -4.5527374647826E+00
(PID.TID 0000.0001) %MON surfExpan_salt_mean          =  -4.6124242060354E-04
(PID.TID 0000.0001) %MON surfExpan_Heat_mean          =  -4.0661958790901E+02
(PID.TID 0000.0001) %MON En_Budget_T2PE_mean          =   6.4681360587037E+01
(PID.TID 0000.0001) // =======================================================
(PID.TID 0000.0001) // End MONITOR dynamic field statistics
(PID.TID 0000.0001) // =======================================================
(PID.TID 0000.0001)   Exporting atmospheric fluxes at iter.        32
(PID.TID 0000.0001)   Importing oceanic fields at iteration        32
 cg2d: Sum(rhs),rhsMax =   4.09781932830811E-08  3.83930990302469E+04
(PID.TID 0000.0001)      cg2d_init_res =   6.44121583433903E+04
(PID.TID 0000.0001)      cg2d_iters(min,last) =      -1      14
(PID.TID 0000.0001)      cg2d_last_res =   1.43968683304676E-11
(PID.TID 0000.0001) // =======================================================
(PID.TID 0000.0001) // Begin MONITOR dynamic field statistics
(PID.TID 0000.0001) // =======================================================
(PID.TID 0000.0001) %MON time_tsnumber                =                    33
(PID.TID 0000.0001) %MON time_secondsf                =   1.1880000000000E+04
(PID.TID 0000.0001) %MON dynstat_eta_max              =   4.8013468339694E+03
(PID.TID 0000.0001) %MON dynstat_eta_min              =  -3.6244287547284E+03
(PID.TID 0000.0001) %MON dynstat_eta_mean             =   1.7995065769180E-12
(PID.TID 0000.0001) %MON dynstat_eta_sd               =   2.8961380694589E+03
(PID.TID 0000.0001) %MON dynstat_eta_del2             =   7.8765072197864E-01
(PID.TID 0000.0001) %MON dynstat_uvel_max             =   3.3637103315557E+01
(PID.TID 0000.0001) %MON dynstat_uvel_min             =  -3.3636978930225E+01
(PID.TID 0000.0001) %MON dynstat_uvel_mean            =   1.2524026126745E+00
(PID.TID 0000.0001) %MON dynstat_uvel_sd              =   1.0108548842220E+01
(PID.TID 0000.0001) %MON dynstat_uvel_del2            =   1.8761725293890E-03
(PID.TID 0000.0001) %MON dynstat_vvel_max             =   3.3626913216338E+01
(PID.TID 0000.0001) %MON dynstat_vvel_min             =  -3.3585400545761E+01
(PID.TID 0000.0001) %MON dynstat_vvel_mean            =   1.2653253065929E+00
(PID.TID 0000.0001) %MON dynstat_vvel_sd              =   1.0107000579429E+01
(PID.TID 0000.0001) %MON dynstat_vvel_del2            =   1.8766422639407E-03
(PID.TID 0000.0001) %MON dynstat_wvel_max             =   3.0933921708785E-01
(PID.TID 0000.0001) %MON dynstat_wvel_min             =  -2.7743353321437E-01
(PID.TID 0000.0001) %MON dynstat_wvel_mean            =   7.5477957518736E-17
(PID.TID 0000.0001) %MON dynstat_wvel_sd              =   1.0272074140388E-01
(PID.TID 0000.0001) %MON dynstat_wvel_del2            =   9.4132854267005E-05
(PID.TID 0000.0001) %MON dynstat_theta_max            =   1.1573642314517E+03
(PID.TID 0000.0001) %MON dynstat_theta_min            =   2.5809750792806E+02
(PID.TID 0000.0001) %MON dynstat_theta_mean           =   3.2786943261559E+02
(PID.TID 0000.0001) %MON dynstat_theta_sd             =   9.0413860510140E+01
(PID.TID 0000.0001) %MON dynstat_theta_del2           =   7.0529369439641E-04
(PID.TID 0000.0001) %MON dynstat_salt_max             =   2.1188762309779E-02
(PID.TID 0000.0001) %MON dynstat_salt_min             =   0.0000000000000E+00
(PID.TID 0000.0001) %MON dynstat_salt_mean            =   1.9112105810317E-03
(PID.TID 0000.0001) %MON dynstat_salt_sd              =   3.9234226101463E-03
(PID.TID 0000.0001) %MON dynstat_salt_del2            =   8.5127246978277E-07
(PID.TID 0000.0001) %MON advcfl_uvel_max              =   1.0156259965797E-01
(PID.TID 0000.0001) %MON advcfl_vvel_max              =   1.0153228452522E-01
(PID.TID 0000.0001) %MON advcfl_wvel_max              =   1.1923138988397E-02
(PID.TID 0000.0001) %MON advcfl_W_hf_max              =   1.3854266110842E-02
(PID.TID 0000.0001) %MON am_eta_mean                  =  -2.4646655659782E+11
(PID.TID 0000.0001) %MON am_uZo_mean                  =   2.4597880721117E+11
(PID.TID 0000.0001) %MON am_tot_mean                  =  -4.8774938664993E+08
(PID.TID 0000.0001) %MON pe_b_mean                    =   3.5523860834903E+01
(PID.TID 0000.0001) %MON ke_max                       =   5.6722880408174E+02
(PID.TID 0000.0001) %MON ke_mean                      =   1.0375189042190E+02
(PID.TID 0000.0001) %MON ke_vol                       =   5.0986421042785E+19
(PID.TID 0000.0001) %MON vort_r_min                   =  -1.3153575580512E-05
(PID.TID 0000.0001) %MON vort_r_max                   =   1.3145694325456E-05
(PID.TID 0000.0001) %MON vort_a_mean                  =  -1.2256775868926E-20
(PID.TID 0000.0001) %MON vort_a_sd                    =   8.5311792864950E-05
(PID.TID 0000.0001) %MON vort_p_mean                  =  -1.4708106786457E-20
(PID.TID 0000.0001) %MON vort_p_sd                    =   8.4251439562309E-05
(PID.TID 0000.0001) %MON surfExpan_theta_mean         =  -4.4833648405809E+00
(PID.TID 0000.0001) %MON surfExpan_salt_mean          =  -4.5708119611791E-04
(PID.TID 0000.0001) %MON surfExpan_Heat_mean          =  -4.0077758540349E+02
(PID.TID 0000.0001) %MON En_Budget_T2PE_mean          =   6.5368833432204E+01
(PID.TID 0000.0001) // =======================================================
(PID.TID 0000.0001) // End MONITOR dynamic field statistics
(PID.TID 0000.0001) // =======================================================
 cg2d: Sum(rhs),rhsMax =   4.84287738800049E-08  3.99785603422005E+04
(PID.TID 0000.0001)      cg2d_init_res =   6.34811797228236E+04
(PID.TID 0000.0001)      cg2d_iters(min,last) =      -1      14
(PID.TID 0000.0001)      cg2d_last_res =   1.51286966799277E-11
(PID.TID 0000.0001) // =======================================================
(PID.TID 0000.0001) // Begin MONITOR dynamic field statistics
(PID.TID 0000.0001) // =======================================================
(PID.TID 0000.0001) %MON time_tsnumber                =                    34
(PID.TID 0000.0001) %MON time_secondsf                =   1.2240000000000E+04
(PID.TID 0000.0001) %MON dynstat_eta_max              =   4.9974654532115E+03
(PID.TID 0000.0001) %MON dynstat_eta_min              =  -3.7762843118504E+03
(PID.TID 0000.0001) %MON dynstat_eta_mean             =  -5.1414473626228E-13
(PID.TID 0000.0001) %MON dynstat_eta_sd               =   3.0160684232316E+03
(PID.TID 0000.0001) %MON dynstat_eta_del2             =   8.0136289576620E-01
(PID.TID 0000.0001) %MON dynstat_uvel_max             =   3.4156073602985E+01
(PID.TID 0000.0001) %MON dynstat_uvel_min             =  -3.4156186882048E+01
(PID.TID 0000.0001) %MON dynstat_uvel_mean            =   1.3040888450999E+00
(PID.TID 0000.0001) %MON dynstat_uvel_sd              =   1.0246666310417E+01
(PID.TID 0000.0001) %MON dynstat_uvel_del2            =   1.8955115614825E-03
(PID.TID 0000.0001) %MON dynstat_vvel_max             =   3.4145849510071E+01
(PID.TID 0000.0001) %MON dynstat_vvel_min             =  -3.4102440418329E+01
(PID.TID 0000.0001) %MON dynstat_vvel_mean            =   1.3176692059960E+00
(PID.TID 0000.0001) %MON dynstat_vvel_sd              =   1.0244970958831E+01
(PID.TID 0000.0001) %MON dynstat_vvel_del2            =   1.8958602778500E-03
(PID.TID 0000.0001) %MON dynstat_wvel_max             =   3.1230073227892E-01
(PID.TID 0000.0001) %MON dynstat_wvel_min             =  -2.7435245194491E-01
(PID.TID 0000.0001) %MON dynstat_wvel_mean            =  -5.7866434097697E-17
(PID.TID 0000.0001) %MON dynstat_wvel_sd              =   1.0430285374125E-01
(PID.TID 0000.0001) %MON dynstat_wvel_del2            =   9.4848461997986E-05
(PID.TID 0000.0001) %MON dynstat_theta_max            =   1.1573411819326E+03
(PID.TID 0000.0001) %MON dynstat_theta_min            =   2.5815738724600E+02
(PID.TID 0000.0001) %MON dynstat_theta_mean           =   3.2786645590402E+02
(PID.TID 0000.0001) %MON dynstat_theta_sd             =   9.0417230127433E+01
(PID.TID 0000.0001) %MON dynstat_theta_del2           =   7.0455650065296E-04
(PID.TID 0000.0001) %MON dynstat_salt_max             =   2.1408058507273E-02
(PID.TID 0000.0001) %MON dynstat_salt_min             =   0.0000000000000E+00
(PID.TID 0000.0001) %MON dynstat_salt_mean            =   1.9157989989163E-03
(PID.TID 0000.0001) %MON dynstat_salt_sd              =   3.9314693645861E-03
(PID.TID 0000.0001) %MON dynstat_salt_del2            =   8.5518900381573E-07
(PID.TID 0000.0001) %MON advcfl_uvel_max              =   1.0315287025554E-01
(PID.TID 0000.0001) %MON advcfl_vvel_max              =   1.0312244541563E-01
(PID.TID 0000.0001) %MON advcfl_wvel_max              =   1.2044259592493E-02
(PID.TID 0000.0001) %MON advcfl_W_hf_max              =   1.4162184301470E-02
(PID.TID 0000.0001) %MON am_eta_mean                  =  -2.5724728217963E+11
(PID.TID 0000.0001) %MON am_uZo_mean                  =   2.5672972015165E+11
(PID.TID 0000.0001) %MON am_tot_mean                  =  -5.1756202797681E+08
(PID.TID 0000.0001) %MON pe_b_mean                    =   3.8526895490094E+01
(PID.TID 0000.0001) %MON ke_max                       =   5.8642143016271E+02
(PID.TID 0000.0001) %MON ke_mean                      =   1.0669525013830E+02
(PID.TID 0000.0001) %MON ke_vol                       =   5.0986421042785E+19
(PID.TID 0000.0001) %MON vort_r_min                   =  -1.3644388877918E-05
(PID.TID 0000.0001) %MON vort_r_max                   =   1.3636090701285E-05
(PID.TID 0000.0001) %MON vort_a_mean                  =   4.9027103475703E-20
(PID.TID 0000.0001) %MON vort_a_sd                    =   8.5361446862092E-05
(PID.TID 0000.0001) %MON vort_p_mean                  =   4.6575667573768E-20
(PID.TID 0000.0001) %MON vort_p_sd                    =   8.4253517804087E-05
(PID.TID 0000.0001) %MON surfExpan_theta_mean         =  -4.4011528658392E+00
(PID.TID 0000.0001) %MON surfExpan_salt_mean          =  -4.5165135064402E-04
(PID.TID 0000.0001) %MON surfExpan_Heat_mean          =  -3.9377535014528E+02
(PID.TID 0000.0001) %MON En_Budget_T2PE_mean          =   6.5964984062062E+01
(PID.TID 0000.0001) // =======================================================
(PID.TID 0000.0001) // End MONITOR dynamic field statistics
(PID.TID 0000.0001) // =======================================================
 cg2d: Sum(rhs),rhsMax =   3.35276126861572E-08  4.15279156125896E+04
(PID.TID 0000.0001)      cg2d_init_res =   6.23681163893673E+04
(PID.TID 0000.0001)      cg2d_iters(min,last) =      -1      14
(PID.TID 0000.0001)      cg2d_last_res =   1.58543145250244E-11
(PID.TID 0000.0001) // =======================================================
(PID.TID 0000.0001) // Begin MONITOR dynamic field statistics
(PID.TID 0000.0001) // =======================================================
(PID.TID 0000.0001) %MON time_tsnumber                =                    35
(PID.TID 0000.0001) %MON time_secondsf                =   1.2600000000000E+04
(PID.TID 0000.0001) %MON dynstat_eta_max              =   5.1897940401026E+03
(PID.TID 0000.0001) %MON dynstat_eta_min              =  -3.9261881817103E+03
(PID.TID 0000.0001) %MON dynstat_eta_mean             =   2.5707236813114E-13
(PID.TID 0000.0001) %MON dynstat_eta_sd               =   3.1338880817284E+03
(PID.TID 0000.0001) %MON dynstat_eta_del2             =   8.1445353265259E-01
(PID.TID 0000.0001) %MON dynstat_uvel_max             =   3.4630057782743E+01
(PID.TID 0000.0001) %MON dynstat_uvel_min             =  -3.4630401962746E+01
(PID.TID 0000.0001) %MON dynstat_uvel_mean            =   1.3548294537783E+00
(PID.TID 0000.0001) %MON dynstat_uvel_sd              =   1.0376047783557E+01
(PID.TID 0000.0001) %MON dynstat_uvel_del2            =   1.9136413648303E-03
(PID.TID 0000.0001) %MON dynstat_vvel_max             =   3.4619785802900E+01
(PID.TID 0000.0001) %MON dynstat_vvel_min             =  -3.4574529305960E+01
(PID.TID 0000.0001) %MON dynstat_vvel_mean            =   1.3690710927785E+00
(PID.TID 0000.0001) %MON dynstat_vvel_sd              =   1.0374202394989E+01
(PID.TID 0000.0001) %MON dynstat_vvel_del2            =   1.9138482043422E-03
(PID.TID 0000.0001) %MON dynstat_wvel_max             =   3.1494459185789E-01
(PID.TID 0000.0001) %MON dynstat_wvel_min             =  -2.7065422933988E-01
(PID.TID 0000.0001) %MON dynstat_wvel_mean            =   1.2831252778185E-16
(PID.TID 0000.0001) %MON dynstat_wvel_sd              =   1.0578522597983E-01
(PID.TID 0000.0001) %MON dynstat_wvel_del2            =   9.5487970469019E-05
(PID.TID 0000.0001) %MON dynstat_theta_max            =   1.1573274866977E+03
(PID.TID 0000.0001) %MON dynstat_theta_min            =   2.5821547504304E+02
(PID.TID 0000.0001) %MON dynstat_theta_mean           =   3.2786334504366E+02
(PID.TID 0000.0001) %MON dynstat_theta_sd             =   9.0420659878178E+01
(PID.TID 0000.0001) %MON dynstat_theta_del2           =   7.0198431818572E-04
(PID.TID 0000.0001) %MON dynstat_salt_max             =   2.1618637956055E-02
(PID.TID 0000.0001) %MON dynstat_salt_min             =   0.0000000000000E+00
(PID.TID 0000.0001) %MON dynstat_salt_mean            =   1.9205548369656E-03
(PID.TID 0000.0001) %MON dynstat_salt_sd              =   3.9399854554172E-03
(PID.TID 0000.0001) %MON dynstat_salt_del2            =   8.5867760658982E-07
(PID.TID 0000.0001) %MON advcfl_uvel_max              =   1.0460823336309E-01
(PID.TID 0000.0001) %MON advcfl_vvel_max              =   1.0457766488265E-01
(PID.TID 0000.0001) %MON advcfl_wvel_max              =   1.2186474292270E-02
(PID.TID 0000.0001) %MON advcfl_W_hf_max              =   1.4446956070693E-02
(PID.TID 0000.0001) %MON am_eta_mean                  =  -2.6786423150956E+11
(PID.TID 0000.0001) %MON am_uZo_mean                  =   2.6731771534942E+11
(PID.TID 0000.0001) %MON am_tot_mean                  =  -5.4651616014481E+08
(PID.TID 0000.0001) %MON pe_b_mean                    =   4.1595715654007E+01
(PID.TID 0000.0001) %MON ke_max                       =   6.0490599507849E+02
(PID.TID 0000.0001) %MON ke_mean                      =   1.0949818072235E+02
(PID.TID 0000.0001) %MON ke_vol                       =   5.0986421042784E+19
(PID.TID 0000.0001) %MON vort_r_min                   =  -1.4120563551393E-05
(PID.TID 0000.0001) %MON vort_r_max                   =   1.4111880687295E-05
(PID.TID 0000.0001) %MON vort_a_mean                  =  -1.2011640351547E-19
(PID.TID 0000.0001) %MON vort_a_sd                    =   8.5410533995137E-05
(PID.TID 0000.0001) %MON vort_p_mean                  =  -1.2256753566923E-19
(PID.TID 0000.0001) %MON vort_p_sd                    =   8.4255666560493E-05
(PID.TID 0000.0001) %MON surfExpan_theta_mean         =  -4.3064536843270E+00
(PID.TID 0000.0001) %MON surfExpan_salt_mean          =  -4.4496448872162E-04
(PID.TID 0000.0001) %MON surfExpan_Heat_mean          =  -3.8564085537042E+02
(PID.TID 0000.0001) %MON En_Budget_T2PE_mean          =   6.6470195560471E+01
(PID.TID 0000.0001) // =======================================================
(PID.TID 0000.0001) // End MONITOR dynamic field statistics
(PID.TID 0000.0001) // =======================================================
 cg2d: Sum(rhs),rhsMax =  -2.98023223876953E-08  4.30349693367217E+04
(PID.TID 0000.0001)      cg2d_init_res =   6.10771381875261E+04
(PID.TID 0000.0001)      cg2d_iters(min,last) =      -1      14
(PID.TID 0000.0001)      cg2d_last_res =   1.65637659849472E-11
(PID.TID 0000.0001) // =======================================================
(PID.TID 0000.0001) // Begin MONITOR dynamic field statistics
(PID.TID 0000.0001) // =======================================================
(PID.TID 0000.0001) %MON time_tsnumber                =                    36
(PID.TID 0000.0001) %MON time_secondsf                =   1.2960000000000E+04
(PID.TID 0000.0001) %MON dynstat_eta_max              =   5.3772859956674E+03
(PID.TID 0000.0001) %MON dynstat_eta_min              =  -4.0737596705567E+03
(PID.TID 0000.0001) %MON dynstat_eta_mean             =  -3.4276315750819E-13
(PID.TID 0000.0001) %MON dynstat_eta_sd               =   3.2492571695479E+03
(PID.TID 0000.0001) %MON dynstat_eta_del2             =   8.2696908391658E-01
(PID.TID 0000.0001) %MON dynstat_uvel_max             =   3.5058729534130E+01
(PID.TID 0000.0001) %MON dynstat_uvel_min             =  -3.5059303348227E+01
(PID.TID 0000.0001) %MON dynstat_uvel_mean            =   1.4044864187481E+00
(PID.TID 0000.0001) %MON dynstat_uvel_sd              =   1.0497150901374E+01
(PID.TID 0000.0001) %MON dynstat_uvel_del2            =   1.9306715637243E-03
(PID.TID 0000.0001) %MON dynstat_vvel_max             =   3.5048401510444E+01
(PID.TID 0000.0001) %MON dynstat_vvel_min             =  -3.5001350835920E+01
(PID.TID 0000.0001) %MON dynstat_vvel_mean            =   1.4193914429900E+00
(PID.TID 0000.0001) %MON dynstat_vvel_sd              =   1.0495152379949E+01
(PID.TID 0000.0001) %MON dynstat_vvel_del2            =   1.9307431898362E-03
(PID.TID 0000.0001) %MON dynstat_wvel_max             =   3.1735914521103E-01
(PID.TID 0000.0001) %MON dynstat_wvel_min             =  -2.6634821991731E-01
(PID.TID 0000.0001) %MON dynstat_wvel_mean            =   2.8430030665390E-16
(PID.TID 0000.0001) %MON dynstat_wvel_sd              =   1.0716994389187E-01
(PID.TID 0000.0001) %MON dynstat_wvel_del2            =   9.6064481731879E-05
(PID.TID 0000.0001) %MON dynstat_theta_max            =   1.1572929847639E+03
(PID.TID 0000.0001) %MON dynstat_theta_min            =   2.5827178479604E+02
(PID.TID 0000.0001) %MON dynstat_theta_mean           =   3.2786010849112E+02
(PID.TID 0000.0001) %MON dynstat_theta_sd             =   9.0424141878989E+01
(PID.TID 0000.0001) %MON dynstat_theta_del2           =   6.9828570549885E-04
(PID.TID 0000.0001) %MON dynstat_salt_max             =   2.1811762769485E-02
(PID.TID 0000.0001) %MON dynstat_salt_min             =   0.0000000000000E+00
(PID.TID 0000.0001) %MON dynstat_salt_mean            =   1.9254797082878E-03
(PID.TID 0000.0001) %MON dynstat_salt_sd              =   3.9489615646335E-03
(PID.TID 0000.0001) %MON dynstat_salt_del2            =   8.6074883721008E-07
(PID.TID 0000.0001) %MON advcfl_uvel_max              =   1.0592780473819E-01
(PID.TID 0000.0001) %MON advcfl_vvel_max              =   1.0589705290757E-01
(PID.TID 0000.0001) %MON advcfl_wvel_max              =   1.2439149190915E-02
(PID.TID 0000.0001) %MON advcfl_W_hf_max              =   1.4720309078011E-02
(PID.TID 0000.0001) %MON am_eta_mean                  =  -2.7828576968922E+11
(PID.TID 0000.0001) %MON am_uZo_mean                  =   2.7771151085001E+11
(PID.TID 0000.0001) %MON am_tot_mean                  =  -5.7425883921606E+08
(PID.TID 0000.0001) %MON pe_b_mean                    =   4.4714647042966E+01
(PID.TID 0000.0001) %MON ke_max                       =   6.2265589874982E+02
(PID.TID 0000.0001) %MON ke_mean                      =   1.1216282734671E+02
(PID.TID 0000.0001) %MON ke_vol                       =   5.0986421042785E+19
(PID.TID 0000.0001) %MON vort_r_min                   =  -1.4580436225752E-05
(PID.TID 0000.0001) %MON vort_r_max                   =   1.4571412370470E-05
(PID.TID 0000.0001) %MON vort_a_mean                  =   7.8443365561125E-20
(PID.TID 0000.0001) %MON vort_a_sd                    =   8.5458909401017E-05
(PID.TID 0000.0001) %MON vort_p_mean                  =   7.8443215881901E-20
(PID.TID 0000.0001) %MON vort_p_sd                    =   8.4257887721631E-05
(PID.TID 0000.0001) %MON surfExpan_theta_mean         =  -4.1996525236592E+00
(PID.TID 0000.0001) %MON surfExpan_salt_mean          =  -4.3703407473202E-04
(PID.TID 0000.0001) %MON surfExpan_Heat_mean          =  -3.7640525682317E+02
(PID.TID 0000.0001) %MON En_Budget_T2PE_mean          =   6.6885086942023E+01
(PID.TID 0000.0001) // =======================================================
(PID.TID 0000.0001) // End MONITOR dynamic field statistics
(PID.TID 0000.0001) // =======================================================
 cg2d: Sum(rhs),rhsMax =   1.86264514923096E-08  4.44940229840392E+04
(PID.TID 0000.0001)      cg2d_init_res =   5.96130335479509E+04
(PID.TID 0000.0001)      cg2d_iters(min,last) =      -1      14
(PID.TID 0000.0001)      cg2d_last_res =   1.72456264374287E-11
(PID.TID 0000.0001) // =======================================================
(PID.TID 0000.0001) // Begin MONITOR dynamic field statistics
(PID.TID 0000.0001) // =======================================================
(PID.TID 0000.0001) %MON time_tsnumber                =                    37
(PID.TID 0000.0001) %MON time_secondsf                =   1.3320000000000E+04
(PID.TID 0000.0001) %MON dynstat_eta_max              =   5.5591607185078E+03
(PID.TID 0000.0001) %MON dynstat_eta_min              =  -4.2186187679830E+03
(PID.TID 0000.0001) %MON dynstat_eta_mean             =   1.9708881556721E-12
(PID.TID 0000.0001) %MON dynstat_eta_sd               =   3.3618438470335E+03
(PID.TID 0000.0001) %MON dynstat_eta_del2             =   8.3896209184284E-01
(PID.TID 0000.0001) %MON dynstat_uvel_max             =   3.5441894260717E+01
(PID.TID 0000.0001) %MON dynstat_uvel_min             =  -3.5442700785773E+01
(PID.TID 0000.0001) %MON dynstat_uvel_mean            =   1.4529259420586E+00
(PID.TID 0000.0001) %MON dynstat_uvel_sd              =   1.0610445585404E+01
(PID.TID 0000.0001) %MON dynstat_uvel_del2            =   1.9467049317939E-03
(PID.TID 0000.0001) %MON dynstat_vvel_max             =   3.5431502975556E+01
(PID.TID 0000.0001) %MON dynstat_vvel_min             =  -3.5386060878636E+01
(PID.TID 0000.0001) %MON dynstat_vvel_mean            =   1.4684953143507E+00
(PID.TID 0000.0001) %MON dynstat_vvel_sd              =   1.0608290964701E+01
(PID.TID 0000.0001) %MON dynstat_vvel_del2            =   1.9466127397001E-03
(PID.TID 0000.0001) %MON dynstat_wvel_max             =   3.1981688366584E-01
(PID.TID 0000.0001) %MON dynstat_wvel_min             =  -2.6143945518795E-01
(PID.TID 0000.0001) %MON dynstat_wvel_mean            =   7.5477957518736E-17
(PID.TID 0000.0001) %MON dynstat_wvel_sd              =   1.0845957938143E-01
(PID.TID 0000.0001) %MON dynstat_wvel_del2            =   9.6586276847292E-05
(PID.TID 0000.0001) %MON dynstat_theta_max            =   1.1574182419208E+03
(PID.TID 0000.0001) %MON dynstat_theta_min            =   2.5832629783407E+02
(PID.TID 0000.0001) %MON dynstat_theta_mean           =   3.2785675203031E+02
(PID.TID 0000.0001) %MON dynstat_theta_sd             =   9.0427671077677E+01
(PID.TID 0000.0001) %MON dynstat_theta_del2           =   6.9419162812594E-04
(PID.TID 0000.0001) %MON dynstat_salt_max             =   2.1974527251860E-02
(PID.TID 0000.0001) %MON dynstat_salt_min             =   0.0000000000000E+00
(PID.TID 0000.0001) %MON dynstat_salt_mean            =   1.9305752230781E-03
(PID.TID 0000.0001) %MON dynstat_salt_sd              =   3.9584002617142E-03
(PID.TID 0000.0001) %MON dynstat_salt_del2            =   8.6087229992412E-07
(PID.TID 0000.0001) %MON advcfl_uvel_max              =   1.0711115504908E-01
(PID.TID 0000.0001) %MON advcfl_vvel_max              =   1.0708017631315E-01
(PID.TID 0000.0001) %MON advcfl_wvel_max              =   1.2691763484138E-02
(PID.TID 0000.0001) %MON advcfl_W_hf_max              =   1.4985282446855E-02
(PID.TID 0000.0001) %MON am_eta_mean                  =  -2.8848086807869E+11
(PID.TID 0000.0001) %MON am_uZo_mean                  =   2.8788045520817E+11
(PID.TID 0000.0001) %MON am_tot_mean                  =  -6.0041287052673E+08
(PID.TID 0000.0001) %MON pe_b_mean                    =   4.7867055118294E+01
(PID.TID 0000.0001) %MON ke_max                       =   6.3965130718258E+02
(PID.TID 0000.0001) %MON ke_mean                      =   1.1469243249699E+02
(PID.TID 0000.0001) %MON ke_vol                       =   5.0986421042785E+19
(PID.TID 0000.0001) %MON vort_r_min                   =  -1.5022393782444E-05
(PID.TID 0000.0001) %MON vort_r_max                   =   1.5013086709909E-05
(PID.TID 0000.0001) %MON vort_a_mean                  =  -1.4708131042711E-19
(PID.TID 0000.0001) %MON vort_a_sd                    =   8.5506426303203E-05
(PID.TID 0000.0001) %MON vort_p_mean                  =  -1.5198371696784E-19
(PID.TID 0000.0001) %MON vort_p_sd                    =   8.4260179682384E-05
(PID.TID 0000.0001) %MON surfExpan_theta_mean         =  -4.0811666100368E+00
(PID.TID 0000.0001) %MON surfExpan_salt_mean          =  -4.2787496698824E-04
(PID.TID 0000.0001) %MON surfExpan_Heat_mean          =  -3.6610284600286E+02
(PID.TID 0000.0001) %MON En_Budget_T2PE_mean          =   6.7210320548739E+01
(PID.TID 0000.0001) // =======================================================
(PID.TID 0000.0001) // End MONITOR dynamic field statistics
(PID.TID 0000.0001) // =======================================================
 cg2d: Sum(rhs),rhsMax =   1.49011611938477E-08  4.58997779105587E+04
(PID.TID 0000.0001)      cg2d_init_res =   5.79812235176621E+04
(PID.TID 0000.0001)      cg2d_iters(min,last) =      -1      14
(PID.TID 0000.0001)      cg2d_last_res =   1.78878315209371E-11
(PID.TID 0000.0001) // =======================================================
(PID.TID 0000.0001) // Begin MONITOR dynamic field statistics
(PID.TID 0000.0001) // =======================================================
(PID.TID 0000.0001) %MON time_tsnumber                =                    38
(PID.TID 0000.0001) %MON time_secondsf                =   1.3680000000000E+04
(PID.TID 0000.0001) %MON dynstat_eta_max              =   5.7346434091732E+03
(PID.TID 0000.0001) %MON dynstat_eta_min              =  -4.3603907218881E+03
(PID.TID 0000.0001) %MON dynstat_eta_mean             =  -5.9983552563933E-13
(PID.TID 0000.0001) %MON dynstat_eta_sd               =   3.4713252687367E+03
(PID.TID 0000.0001) %MON dynstat_eta_del2             =   8.5048350351512E-01
(PID.TID 0000.0001) %MON dynstat_uvel_max             =   3.5884101330791E+01
(PID.TID 0000.0001) %MON dynstat_uvel_min             =  -3.5880164864807E+01
(PID.TID 0000.0001) %MON dynstat_uvel_mean            =   1.5000191761651E+00
(PID.TID 0000.0001) %MON dynstat_uvel_sd              =   1.0716441435663E+01
(PID.TID 0000.0001) %MON dynstat_uvel_del2            =   1.9618823273129E-03
(PID.TID 0000.0001) %MON dynstat_vvel_max             =   3.5869204217194E+01
(PID.TID 0000.0001) %MON dynstat_vvel_min             =  -3.5872375583322E+01
(PID.TID 0000.0001) %MON dynstat_vvel_mean            =   1.5162524600129E+00
(PID.TID 0000.0001) %MON dynstat_vvel_sd              =   1.0714128177692E+01
(PID.TID 0000.0001) %MON dynstat_vvel_del2            =   1.9616100749333E-03
(PID.TID 0000.0001) %MON dynstat_wvel_max             =   3.2301809673210E-01
(PID.TID 0000.0001) %MON dynstat_wvel_min             =  -2.5592208800120E-01
(PID.TID 0000.0001) %MON dynstat_wvel_mean            =   4.5286774511241E-17
(PID.TID 0000.0001) %MON dynstat_wvel_sd              =   1.0965704867253E-01
(PID.TID 0000.0001) %MON dynstat_wvel_del2            =   9.7062404976995E-05
(PID.TID 0000.0001) %MON dynstat_theta_max            =   1.1575707690729E+03
(PID.TID 0000.0001) %MON dynstat_theta_min            =   2.5837926028211E+02
(PID.TID 0000.0001) %MON dynstat_theta_mean           =   3.2785328345618E+02
(PID.TID 0000.0001) %MON dynstat_theta_sd             =   9.0431241178094E+01
(PID.TID 0000.0001) %MON dynstat_theta_del2           =   6.9037761725968E-04
(PID.TID 0000.0001) %MON dynstat_salt_max             =   2.2105936879810E-02
(PID.TID 0000.0001) %MON dynstat_salt_min             =   0.0000000000000E+00
(PID.TID 0000.0001) %MON dynstat_salt_mean            =   1.9358415755685E-03
(PID.TID 0000.0001) %MON dynstat_salt_sd              =   3.9682970551278E-03
(PID.TID 0000.0001) %MON dynstat_salt_del2            =   8.5855530449347E-07
(PID.TID 0000.0001) %MON advcfl_uvel_max              =   1.0815827316126E-01
(PID.TID 0000.0001) %MON advcfl_vvel_max              =   1.0812702495360E-01
(PID.TID 0000.0001) %MON advcfl_wvel_max              =   1.2897327298488E-02
(PID.TID 0000.0001) %MON advcfl_W_hf_max              =   1.5243696044259E-02
(PID.TID 0000.0001) %MON am_eta_mean                  =  -2.9841919977769E+11
(PID.TID 0000.0001) %MON am_uZo_mean                  =   2.9779462639637E+11
(PID.TID 0000.0001) %MON am_tot_mean                  =  -6.2457338131409E+08
(PID.TID 0000.0001) %MON pe_b_mean                    =   5.1035485966279E+01
(PID.TID 0000.0001) %MON ke_max                       =   6.5587880815154E+02
(PID.TID 0000.0001) %MON ke_mean                      =   1.1709186935174E+02
(PID.TID 0000.0001) %MON ke_vol                       =   5.0986421042785E+19
(PID.TID 0000.0001) %MON vort_r_min                   =  -1.5444877662611E-05
(PID.TID 0000.0001) %MON vort_r_max                   =   1.5435361548309E-05
(PID.TID 0000.0001) %MON vort_a_mean                  =   4.6575748301918E-20
(PID.TID 0000.0001) %MON vort_a_sd                    =   8.5552943857750E-05
(PID.TID 0000.0001) %MON vort_p_mean                  =   4.6575650864936E-20
(PID.TID 0000.0001) %MON vort_p_sd                    =   8.4262544358022E-05
(PID.TID 0000.0001) %MON surfExpan_theta_mean         =  -3.9514410964090E+00
(PID.TID 0000.0001) %MON surfExpan_salt_mean          =  -4.1750500286623E-04
(PID.TID 0000.0001) %MON surfExpan_Heat_mean          =  -3.5477068288828E+02
(PID.TID 0000.0001) %MON En_Budget_T2PE_mean          =   6.7446790349118E+01
(PID.TID 0000.0001) // =======================================================
(PID.TID 0000.0001) // End MONITOR dynamic field statistics
(PID.TID 0000.0001) // =======================================================
 cg2d: Sum(rhs),rhsMax =  -2.98023223876953E-08  4.72472025532792E+04
(PID.TID 0000.0001)      cg2d_init_res =   5.61877670319435E+04
(PID.TID 0000.0001)      cg2d_iters(min,last) =      -1      14
(PID.TID 0000.0001)      cg2d_last_res =   1.84778659800962E-11
(PID.TID 0000.0001) // =======================================================
(PID.TID 0000.0001) // Begin MONITOR dynamic field statistics
(PID.TID 0000.0001) // =======================================================
(PID.TID 0000.0001) %MON time_tsnumber                =                    39
(PID.TID 0000.0001) %MON time_secondsf                =   1.4040000000000E+04
(PID.TID 0000.0001) %MON dynstat_eta_max              =   5.9031656321451E+03
(PID.TID 0000.0001) %MON dynstat_eta_min              =  -4.4987104529949E+03
(PID.TID 0000.0001) %MON dynstat_eta_mean             =   8.5690789377047E-14
(PID.TID 0000.0001) %MON dynstat_eta_sd               =   3.5773885105932E+03
(PID.TID 0000.0001) %MON dynstat_eta_del2             =   8.6158029790447E-01
(PID.TID 0000.0001) %MON dynstat_uvel_max             =   3.6329531413996E+01
(PID.TID 0000.0001) %MON dynstat_uvel_min             =  -3.6325572452755E+01
(PID.TID 0000.0001) %MON dynstat_uvel_mean            =   1.5456418493770E+00
(PID.TID 0000.0001) %MON dynstat_uvel_sd              =   1.0815652095685E+01
(PID.TID 0000.0001) %MON dynstat_uvel_del2            =   1.9763030726033E-03
(PID.TID 0000.0001) %MON dynstat_vvel_max             =   3.6314418363876E+01
(PID.TID 0000.0001) %MON dynstat_vvel_min             =  -3.6317565276315E+01
(PID.TID 0000.0001) %MON dynstat_vvel_mean            =   1.5625372859967E+00
(PID.TID 0000.0001) %MON dynstat_vvel_sd              =   1.0813179623609E+01
(PID.TID 0000.0001) %MON dynstat_vvel_del2            =   1.9758402029689E-03
(PID.TID 0000.0001) %MON dynstat_wvel_max             =   3.2623145881834E-01
(PID.TID 0000.0001) %MON dynstat_wvel_min             =  -2.4978401275703E-01
(PID.TID 0000.0001) %MON dynstat_wvel_mean            =   1.6101964270664E-16
(PID.TID 0000.0001) %MON dynstat_wvel_sd              =   1.1076572587746E-01
(PID.TID 0000.0001) %MON dynstat_wvel_del2            =   9.7500562039611E-05
(PID.TID 0000.0001) %MON dynstat_theta_max            =   1.1577328961533E+03
(PID.TID 0000.0001) %MON dynstat_theta_min            =   2.5843074479693E+02
(PID.TID 0000.0001) %MON dynstat_theta_mean           =   3.2784970952897E+02
(PID.TID 0000.0001) %MON dynstat_theta_sd             =   9.0434847403706E+01
(PID.TID 0000.0001) %MON dynstat_theta_del2           =   6.8749276223261E-04
(PID.TID 0000.0001) %MON dynstat_salt_max             =   2.2214371008649E-02
(PID.TID 0000.0001) %MON dynstat_salt_min             =   2.4125296715271-239
(PID.TID 0000.0001) %MON dynstat_salt_mean            =   1.9412785526336E-03
(PID.TID 0000.0001) %MON dynstat_salt_sd              =   3.9786381770941E-03
(PID.TID 0000.0001) %MON dynstat_salt_del2            =   8.5336514293391E-07
(PID.TID 0000.0001) %MON advcfl_uvel_max              =   1.0906967646452E-01
(PID.TID 0000.0001) %MON advcfl_vvel_max              =   1.0903797456874E-01
(PID.TID 0000.0001) %MON advcfl_wvel_max              =   1.3104678170701E-02
(PID.TID 0000.0001) %MON advcfl_W_hf_max              =   1.5498825108068E-02
(PID.TID 0000.0001) %MON am_eta_mean                  =  -3.0807123375409E+11
(PID.TID 0000.0001) %MON am_uZo_mean                  =   3.0742492838120E+11
(PID.TID 0000.0001) %MON am_tot_mean                  =  -6.4630537288782E+08
(PID.TID 0000.0001) %MON pe_b_mean                    =   5.4201817662887E+01
(PID.TID 0000.0001) %MON ke_max                       =   6.7133094222321E+02
(PID.TID 0000.0001) %MON ke_mean                      =   1.1936685766210E+02
(PID.TID 0000.0001) %MON ke_vol                       =   5.0986421042785E+19
(PID.TID 0000.0001) %MON vort_r_min                   =  -1.5846385006595E-05
(PID.TID 0000.0001) %MON vort_r_max                   =   1.5836755142177E-05
(PID.TID 0000.0001) %MON vort_a_mean                  =   2.0591383459795E-19
(PID.TID 0000.0001) %MON vort_a_sd                    =   8.5598321748211E-05
(PID.TID 0000.0001) %MON vort_p_mean                  =   1.9855933476925E-19
(PID.TID 0000.0001) %MON vort_p_sd                    =   8.4264981440167E-05
(PID.TID 0000.0001) %MON surfExpan_theta_mean         =  -3.8109486157800E+00
(PID.TID 0000.0001) %MON surfExpan_salt_mean          =  -4.0594425721568E-04
(PID.TID 0000.0001) %MON surfExpan_Heat_mean          =  -3.4244860087375E+02
(PID.TID 0000.0001) %MON En_Budget_T2PE_mean          =   6.7595405491667E+01
(PID.TID 0000.0001) // =======================================================
(PID.TID 0000.0001) // End MONITOR dynamic field statistics
(PID.TID 0000.0001) // =======================================================
 cg2d: Sum(rhs),rhsMax =  -4.09781932830811E-08  4.85314013018606E+04
(PID.TID 0000.0001)      cg2d_init_res =   5.42393775276697E+04
(PID.TID 0000.0001)      cg2d_iters(min,last) =      -1      14
(PID.TID 0000.0001)      cg2d_last_res =   1.90036885278989E-11
(PID.TID 0000.0001) // =======================================================
(PID.TID 0000.0001) // Begin MONITOR dynamic field statistics
(PID.TID 0000.0001) // =======================================================
(PID.TID 0000.0001) %MON time_tsnumber                =                    40
(PID.TID 0000.0001) %MON time_secondsf                =   1.4400000000000E+04
(PID.TID 0000.0001) %MON dynstat_eta_max              =   6.0637948296029E+03
(PID.TID 0000.0001) %MON dynstat_eta_min              =  -4.6332261389077E+03
(PID.TID 0000.0001) %MON dynstat_eta_mean             =  -5.1414473626228E-13
(PID.TID 0000.0001) %MON dynstat_eta_sd               =   3.6797314688070E+03
(PID.TID 0000.0001) %MON dynstat_eta_del2             =   8.7229430666680E-01
(PID.TID 0000.0001) %MON dynstat_uvel_max             =   3.6733518449616E+01
(PID.TID 0000.0001) %MON dynstat_uvel_min             =  -3.6729541229330E+01
(PID.TID 0000.0001) %MON dynstat_uvel_mean            =   1.5896747792150E+00
(PID.TID 0000.0001) %MON dynstat_uvel_sd              =   1.0908619209595E+01
(PID.TID 0000.0001) %MON dynstat_uvel_del2            =   1.9901167957783E-03
(PID.TID 0000.0001) %MON dynstat_vvel_max             =   3.6718204547087E+01
(PID.TID 0000.0001) %MON dynstat_vvel_min             =  -3.6721323940892E+01
(PID.TID 0000.0001) %MON dynstat_vvel_mean            =   1.6072292883107E+00
(PID.TID 0000.0001) %MON dynstat_vvel_sd              =   1.0905987209028E+01
(PID.TID 0000.0001) %MON dynstat_vvel_del2            =   1.9894272121794E-03
(PID.TID 0000.0001) %MON dynstat_wvel_max             =   3.2953587780010E-01
(PID.TID 0000.0001) %MON dynstat_wvel_min             =  -2.4301165186217E-01
(PID.TID 0000.0001) %MON dynstat_wvel_mean            =  -5.2834570263115E-17
(PID.TID 0000.0001) %MON dynstat_wvel_sd              =   1.1178941402737E-01
(PID.TID 0000.0001) %MON dynstat_wvel_del2            =   9.7910671426855E-05
(PID.TID 0000.0001) %MON dynstat_theta_max            =   1.1579155904040E+03
(PID.TID 0000.0001) %MON dynstat_theta_min            =   2.5848082552373E+02
(PID.TID 0000.0001) %MON dynstat_theta_mean           =   3.2784603907083E+02
(PID.TID 0000.0001) %MON dynstat_theta_sd             =   9.0438483586243E+01
(PID.TID 0000.0001) %MON dynstat_theta_del2           =   6.8642921914262E-04
(PID.TID 0000.0001) %MON dynstat_salt_max             =   2.2352667683980E-02
(PID.TID 0000.0001) %MON dynstat_salt_min             =   6.4110376306046-209
(PID.TID 0000.0001) %MON dynstat_salt_mean            =   1.9468853499738E-03
(PID.TID 0000.0001) %MON dynstat_salt_sd              =   3.9893846517399E-03
(PID.TID 0000.0001) %MON dynstat_salt_del2            =   8.4807676254766E-07
(PID.TID 0000.0001) %MON advcfl_uvel_max              =   1.0984633480229E-01
(PID.TID 0000.0001) %MON advcfl_vvel_max              =   1.0981373261535E-01
(PID.TID 0000.0001) %MON advcfl_wvel_max              =   1.3310064761296E-02
(PID.TID 0000.0001) %MON advcfl_W_hf_max              =   1.5752431418012E-02
(PID.TID 0000.0001) %MON am_eta_mean                  =  -3.1740832631833E+11
(PID.TID 0000.0001) %MON am_uZo_mean                  =   3.1674318544538E+11
(PID.TID 0000.0001) %MON am_tot_mean                  =  -6.6514087295721E+08
(PID.TID 0000.0001) %MON pe_b_mean                    =   5.7347420620105E+01
(PID.TID 0000.0001) %MON ke_max                       =   6.8600575767246E+02
(PID.TID 0000.0001) %MON ke_mean                      =   1.2152439097629E+02
(PID.TID 0000.0001) %MON ke_vol                       =   5.0986421042785E+19
(PID.TID 0000.0001) %MON vort_r_min                   =  -1.6225482907890E-05
(PID.TID 0000.0001) %MON vort_r_max                   =   1.6215850647751E-05
(PID.TID 0000.0001) %MON vort_a_mean                  =  -1.3972724490575E-19
(PID.TID 0000.0001) %MON vort_a_sd                    =   8.5642423887180E-05
(PID.TID 0000.0001) %MON vort_p_mean                  =  -1.3482422652487E-19
(PID.TID 0000.0001) %MON vort_p_sd                    =   8.4267491411292E-05
(PID.TID 0000.0001) %MON surfExpan_theta_mean         =  -3.6601860571022E+00
(PID.TID 0000.0001) %MON surfExpan_salt_mean          =  -3.9321604068042E-04
(PID.TID 0000.0001) %MON surfExpan_Heat_mean          =  -3.2917892786061E+02
(PID.TID 0000.0001) %MON En_Budget_T2PE_mean          =   6.7657265249833E+01
(PID.TID 0000.0001) // =======================================================
(PID.TID 0000.0001) // End MONITOR dynamic field statistics
(PID.TID 0000.0001) // =======================================================
(PID.TID 0000.0001) DIAGSTATS_CLOSE_IO: close file: dynStDiag.0000000000.txt , unit=     9
(PID.TID 0000.0001) DIAGSTATS_CLOSE_IO: close file: diffStDiag.0000000000.txt , unit=    10
(PID.TID 0000.0001) DIAGSTATS_CLOSE_IO: close file: flxStDiag.0000000000.txt , unit=    16
(PID.TID 0000.0001) %CHECKPOINT        40 ckptA
(PID.TID 0000.0001)   Seconds in section "ALL                    [THE_MODEL_MAIN]":
(PID.TID 0000.0001)           User time:   131.28999999999999
(PID.TID 0000.0001)         System time:  0.91000000000000003
(PID.TID 0000.0001)     Wall clock time:   132.65038204193115
(PID.TID 0000.0001)          No. starts:           1
(PID.TID 0000.0001)           No. stops:           1
(PID.TID 0000.0001)   Seconds in section "INITIALISE_FIXED       [THE_MODEL_MAIN]":
(PID.TID 0000.0001)           User time:  0.29999999999999999
(PID.TID 0000.0001)         System time:  2.99999999999999989E-002
(PID.TID 0000.0001)     Wall clock time:  0.41172003746032715
(PID.TID 0000.0001)          No. starts:           1
(PID.TID 0000.0001)           No. stops:           1
(PID.TID 0000.0001)   Seconds in section "THE_MAIN_LOOP          [THE_MODEL_MAIN]":
(PID.TID 0000.0001)           User time:   130.98999999999998
(PID.TID 0000.0001)         System time:  0.88000000000000000
(PID.TID 0000.0001)     Wall clock time:   132.23862099647522
(PID.TID 0000.0001)          No. starts:           1
(PID.TID 0000.0001)           No. stops:           1
(PID.TID 0000.0001)   Seconds in section "INITIALISE_VARIA    [THE_MAIN_LOOP]":
(PID.TID 0000.0001)           User time:   1.3100000000000001
(PID.TID 0000.0001)         System time:  0.12000000000000000
(PID.TID 0000.0001)     Wall clock time:   1.4978399276733398
(PID.TID 0000.0001)          No. starts:           1
(PID.TID 0000.0001)           No. stops:           1
(PID.TID 0000.0001)   Seconds in section "MAIN LOOP           [THE_MAIN_LOOP]":
(PID.TID 0000.0001)           User time:   129.67999999999998
(PID.TID 0000.0001)         System time:  0.76000000000000001
(PID.TID 0000.0001)     Wall clock time:   130.74075102806091
(PID.TID 0000.0001)          No. starts:           1
(PID.TID 0000.0001)           No. stops:           1
(PID.TID 0000.0001)   Seconds in section "MAIN_DO_LOOP        [THE_MAIN_LOOP]":
(PID.TID 0000.0001)           User time:   129.68000000000001
(PID.TID 0000.0001)         System time:  0.76000000000000079
(PID.TID 0000.0001)     Wall clock time:   130.74037861824036
(PID.TID 0000.0001)          No. starts:          40
(PID.TID 0000.0001)           No. stops:          40
(PID.TID 0000.0001)   Seconds in section "FORWARD_STEP        [MAIN_DO_LOOP]":
(PID.TID 0000.0001)           User time:   129.68000000000001
(PID.TID 0000.0001)         System time:  0.76000000000000079
(PID.TID 0000.0001)     Wall clock time:   130.73961544036865
(PID.TID 0000.0001)          No. starts:          40
(PID.TID 0000.0001)           No. stops:          40
(PID.TID 0000.0001)   Seconds in section "DO_STATEVARS_DIAGS  [FORWARD_STEP]":
(PID.TID 0000.0001)           User time:   7.3099999999999170
(PID.TID 0000.0001)         System time:   0.0000000000000000
(PID.TID 0000.0001)     Wall clock time:   7.2938535213470459
(PID.TID 0000.0001)          No. starts:         120
(PID.TID 0000.0001)           No. stops:         120
(PID.TID 0000.0001)   Seconds in section "LOAD_FIELDS_DRIVER  [FORWARD_STEP]":
(PID.TID 0000.0001)           User time:  0.13999999999998636
(PID.TID 0000.0001)         System time:   0.0000000000000000
(PID.TID 0000.0001)     Wall clock time:  0.12786865234375000
(PID.TID 0000.0001)          No. starts:          40
(PID.TID 0000.0001)           No. stops:          40
(PID.TID 0000.0001)   Seconds in section "EXTERNAL_FLDS_LOAD [LOAD_FLDS_DRIVER]":
(PID.TID 0000.0001)           User time:   0.0000000000000000
(PID.TID 0000.0001)         System time:   0.0000000000000000
(PID.TID 0000.0001)     Wall clock time:  4.02688980102539063E-004
(PID.TID 0000.0001)          No. starts:          40
(PID.TID 0000.0001)           No. stops:          40
(PID.TID 0000.0001)   Seconds in section "CPL_EXPORT-IMPORT  [FORWARD_STEP]":
(PID.TID 0000.0001)           User time:   0.0000000000000000
(PID.TID 0000.0001)         System time:   0.0000000000000000
(PID.TID 0000.0001)     Wall clock time:  1.30355358123779297E-002
(PID.TID 0000.0001)          No. starts:          40
(PID.TID 0000.0001)           No. stops:          40
(PID.TID 0000.0001)   Seconds in section "DO_ATMOSPHERIC_PHYS [FORWARD_STEP]":
(PID.TID 0000.0001)           User time:   19.019999999999982
(PID.TID 0000.0001)         System time:  0.73000000000000054
(PID.TID 0000.0001)     Wall clock time:   19.810871124267578
(PID.TID 0000.0001)          No. starts:          40
(PID.TID 0000.0001)           No. stops:          40
(PID.TID 0000.0001)   Seconds in section "ATM_PHYS_DRIVER [DO_ATMOSPHERIC_PHYS]":
(PID.TID 0000.0001)           User time:   18.539999999999949
(PID.TID 0000.0001)         System time:  0.73000000000000054
(PID.TID 0000.0001)     Wall clock time:   19.285731315612793
(PID.TID 0000.0001)          No. starts:          40
(PID.TID 0000.0001)           No. stops:          40
(PID.TID 0000.0001)   Seconds in section "DO_OCEANIC_PHYS     [FORWARD_STEP]":
(PID.TID 0000.0001)           User time:  9.99999999999090505E-003
(PID.TID 0000.0001)         System time:   0.0000000000000000
(PID.TID 0000.0001)     Wall clock time:  9.91034507751464844E-003
(PID.TID 0000.0001)          No. starts:          40
(PID.TID 0000.0001)           No. stops:          40
(PID.TID 0000.0001)   Seconds in section "DYNAMICS            [FORWARD_STEP]":
(PID.TID 0000.0001)           User time:   28.020000000000095
(PID.TID 0000.0001)         System time:   0.0000000000000000
(PID.TID 0000.0001)     Wall clock time:   28.079310178756714
(PID.TID 0000.0001)          No. starts:          40
(PID.TID 0000.0001)           No. stops:          40
(PID.TID 0000.0001)   Seconds in section "UPDATE_R_STAR       [FORWARD_STEP]":
(PID.TID 0000.0001)           User time:   2.0299999999999443
(PID.TID 0000.0001)         System time:   0.0000000000000000
(PID.TID 0000.0001)     Wall clock time:   2.0585551261901855
(PID.TID 0000.0001)          No. starts:          40
(PID.TID 0000.0001)           No. stops:          40
(PID.TID 0000.0001)   Seconds in section "UPDATE_CG2D         [FORWARD_STEP]":
(PID.TID 0000.0001)           User time:  0.80000000000001137
(PID.TID 0000.0001)         System time:   0.0000000000000000
(PID.TID 0000.0001)     Wall clock time:  0.79235267639160156
(PID.TID 0000.0001)          No. starts:          40
(PID.TID 0000.0001)           No. stops:          40
(PID.TID 0000.0001)   Seconds in section "SOLVE_FOR_PRESSURE  [FORWARD_STEP]":
(PID.TID 0000.0001)           User time:   2.6699999999999875
(PID.TID 0000.0001)         System time:   0.0000000000000000
(PID.TID 0000.0001)     Wall clock time:   2.6641042232513428
(PID.TID 0000.0001)          No. starts:          40
(PID.TID 0000.0001)           No. stops:          40
(PID.TID 0000.0001)   Seconds in section "MOM_CORRECTION_STEP [FORWARD_STEP]":
(PID.TID 0000.0001)           User time:   14.980000000000018
(PID.TID 0000.0001)         System time:   0.0000000000000000
(PID.TID 0000.0001)     Wall clock time:   15.054095029830933
(PID.TID 0000.0001)          No. starts:          40
(PID.TID 0000.0001)           No. stops:          40
(PID.TID 0000.0001)   Seconds in section "SHAP_FILT_UV       [MOM_CORR_STEP]":
(PID.TID 0000.0001)           User time:   14.090000000000032
(PID.TID 0000.0001)         System time:   0.0000000000000000
(PID.TID 0000.0001)     Wall clock time:   14.145067453384399
(PID.TID 0000.0001)          No. starts:          40
(PID.TID 0000.0001)           No. stops:          40
(PID.TID 0000.0001)   Seconds in section "INTEGR_CONTINUITY   [FORWARD_STEP]":
(PID.TID 0000.0001)           User time:   2.4900000000000375
(PID.TID 0000.0001)         System time:   0.0000000000000000
(PID.TID 0000.0001)     Wall clock time:   2.4501135349273682
(PID.TID 0000.0001)          No. starts:          40
(PID.TID 0000.0001)           No. stops:          40
(PID.TID 0000.0001)   Seconds in section "CALC_R_STAR         [FORWARD_STEP]":
(PID.TID 0000.0001)           User time:  0.22999999999996135
(PID.TID 0000.0001)         System time:   0.0000000000000000
(PID.TID 0000.0001)     Wall clock time:  0.25091385841369629
(PID.TID 0000.0001)          No. starts:          40
(PID.TID 0000.0001)           No. stops:          40
(PID.TID 0000.0001)   Seconds in section "BLOCKING_EXCHANGES  [FORWARD_STEP]":
(PID.TID 0000.0001)           User time:   1.8600000000000421
(PID.TID 0000.0001)         System time:   0.0000000000000000
(PID.TID 0000.0001)     Wall clock time:   1.8444201946258545
(PID.TID 0000.0001)          No. starts:          80
(PID.TID 0000.0001)           No. stops:          80
(PID.TID 0000.0001)   Seconds in section "THERMODYNAMICS      [FORWARD_STEP]":
(PID.TID 0000.0001)           User time:   29.850000000000051
(PID.TID 0000.0001)         System time:  1.00000000000000089E-002
(PID.TID 0000.0001)     Wall clock time:   29.918833494186401
(PID.TID 0000.0001)          No. starts:          40
(PID.TID 0000.0001)           No. stops:          40
(PID.TID 0000.0001)   Seconds in section "TRC_CORRECTION_STEP [FORWARD_STEP]":
(PID.TID 0000.0001)           User time:   5.5699999999999932
(PID.TID 0000.0001)         System time:   0.0000000000000000
(PID.TID 0000.0001)     Wall clock time:   5.5904693603515625
(PID.TID 0000.0001)          No. starts:          40
(PID.TID 0000.0001)           No. stops:          40
(PID.TID 0000.0001)   Seconds in section "SHAP_FILT_TS       [TRC_CORR_STEP]":
(PID.TID 0000.0001)           User time:   5.5699999999999932
(PID.TID 0000.0001)         System time:   0.0000000000000000
(PID.TID 0000.0001)     Wall clock time:   5.5896108150482178
(PID.TID 0000.0001)          No. starts:          40
(PID.TID 0000.0001)           No. stops:          40
(PID.TID 0000.0001)   Seconds in section "MONITOR             [FORWARD_STEP]":
(PID.TID 0000.0001)           User time:   14.520000000000095
(PID.TID 0000.0001)         System time:   0.0000000000000000
(PID.TID 0000.0001)     Wall clock time:   14.571465015411377
(PID.TID 0000.0001)          No. starts:          40
(PID.TID 0000.0001)           No. stops:          40
(PID.TID 0000.0001)   Seconds in section "DO_THE_MODEL_IO     [FORWARD_STEP]":
(PID.TID 0000.0001)           User time:  6.00000000000022737E-002
(PID.TID 0000.0001)         System time:  1.00000000000000089E-002
(PID.TID 0000.0001)     Wall clock time:  8.88035297393798828E-002
(PID.TID 0000.0001)          No. starts:          40
(PID.TID 0000.0001)           No. stops:          40
(PID.TID 0000.0001)   Seconds in section "DO_WRITE_PICKUP     [FORWARD_STEP]":
(PID.TID 0000.0001)           User time:  0.10999999999998522
(PID.TID 0000.0001)         System time:  1.00000000000000089E-002
(PID.TID 0000.0001)     Wall clock time:  0.11149358749389648
(PID.TID 0000.0001)          No. starts:          40
(PID.TID 0000.0001)           No. stops:          40
(PID.TID 0000.0001) // ======================================================
(PID.TID 0000.0001) // Tile <-> Tile communication statistics
(PID.TID 0000.0001) // ======================================================
(PID.TID 0000.0001) // o Tile number: 000001
(PID.TID 0000.0001) //         No. X exchanges =              0
(PID.TID 0000.0001) //            Max. X spins =              0
(PID.TID 0000.0001) //            Min. X spins =     1000000000
(PID.TID 0000.0001) //          Total. X spins =              0
(PID.TID 0000.0001) //            Avg. X spins =       0.00E+00
(PID.TID 0000.0001) //         No. Y exchanges =              0
(PID.TID 0000.0001) //            Max. Y spins =              0
(PID.TID 0000.0001) //            Min. Y spins =     1000000000
(PID.TID 0000.0001) //          Total. Y spins =              0
(PID.TID 0000.0001) //            Avg. Y spins =       0.00E+00
(PID.TID 0000.0001) // o Tile number: 000002
(PID.TID 0000.0001) //         No. X exchanges =              0
(PID.TID 0000.0001) //            Max. X spins =              0
(PID.TID 0000.0001) //            Min. X spins =     1000000000
(PID.TID 0000.0001) //          Total. X spins =              0
(PID.TID 0000.0001) //            Avg. X spins =       0.00E+00
(PID.TID 0000.0001) //         No. Y exchanges =              0
(PID.TID 0000.0001) //            Max. Y spins =              0
(PID.TID 0000.0001) //            Min. Y spins =     1000000000
(PID.TID 0000.0001) //          Total. Y spins =              0
(PID.TID 0000.0001) //            Avg. Y spins =       0.00E+00
(PID.TID 0000.0001) // o Tile number: 000003
(PID.TID 0000.0001) //         No. X exchanges =              0
(PID.TID 0000.0001) //            Max. X spins =              0
(PID.TID 0000.0001) //            Min. X spins =     1000000000
(PID.TID 0000.0001) //          Total. X spins =              0
(PID.TID 0000.0001) //            Avg. X spins =       0.00E+00
(PID.TID 0000.0001) //         No. Y exchanges =              0
(PID.TID 0000.0001) //            Max. Y spins =              0
(PID.TID 0000.0001) //            Min. Y spins =     1000000000
(PID.TID 0000.0001) //          Total. Y spins =              0
(PID.TID 0000.0001) //            Avg. Y spins =       0.00E+00
(PID.TID 0000.0001) // o Tile number: 000004
(PID.TID 0000.0001) //         No. X exchanges =              0
(PID.TID 0000.0001) //            Max. X spins =              0
(PID.TID 0000.0001) //            Min. X spins =     1000000000
(PID.TID 0000.0001) //          Total. X spins =              0
(PID.TID 0000.0001) //            Avg. X spins =       0.00E+00
(PID.TID 0000.0001) //         No. Y exchanges =              0
(PID.TID 0000.0001) //            Max. Y spins =              0
(PID.TID 0000.0001) //            Min. Y spins =     1000000000
(PID.TID 0000.0001) //          Total. Y spins =              0
(PID.TID 0000.0001) //            Avg. Y spins =       0.00E+00
(PID.TID 0000.0001) // o Tile number: 000005
(PID.TID 0000.0001) //         No. X exchanges =              0
(PID.TID 0000.0001) //            Max. X spins =              0
(PID.TID 0000.0001) //            Min. X spins =     1000000000
(PID.TID 0000.0001) //          Total. X spins =              0
(PID.TID 0000.0001) //            Avg. X spins =       0.00E+00
(PID.TID 0000.0001) //         No. Y exchanges =              0
(PID.TID 0000.0001) //            Max. Y spins =              0
(PID.TID 0000.0001) //            Min. Y spins =     1000000000
(PID.TID 0000.0001) //          Total. Y spins =              0
(PID.TID 0000.0001) //            Avg. Y spins =       0.00E+00
(PID.TID 0000.0001) // o Tile number: 000006
(PID.TID 0000.0001) //         No. X exchanges =              0
(PID.TID 0000.0001) //            Max. X spins =              0
(PID.TID 0000.0001) //            Min. X spins =     1000000000
(PID.TID 0000.0001) //          Total. X spins =              0
(PID.TID 0000.0001) //            Avg. X spins =       0.00E+00
(PID.TID 0000.0001) //         No. Y exchanges =              0
(PID.TID 0000.0001) //            Max. Y spins =              0
(PID.TID 0000.0001) //            Min. Y spins =     1000000000
(PID.TID 0000.0001) //          Total. Y spins =              0
(PID.TID 0000.0001) //            Avg. Y spins =       0.00E+00
(PID.TID 0000.0001) // o Thread number: 000001
(PID.TID 0000.0001) //            No. barriers =          17532
(PID.TID 0000.0001) //      Max. barrier spins =              1
(PID.TID 0000.0001) //      Min. barrier spins =              1
(PID.TID 0000.0001) //     Total barrier spins =          17532
(PID.TID 0000.0001) //      Avg. barrier spins =       1.00E+00
PROGRAM MAIN: Execution ended Normally
