(PID.TID 0000.0001) 
(PID.TID 0000.0001) // ======================================================
(PID.TID 0000.0001) //                      MITgcm UV
(PID.TID 0000.0001) //                      =========
(PID.TID 0000.0001) // ======================================================
(PID.TID 0000.0001) // execution environment starting up...
(PID.TID 0000.0001) 
(PID.TID 0000.0001) // MITgcmUV version:  checkpoint67j
(PID.TID 0000.0001) // Build user:        jmc
(PID.TID 0000.0001) // Build host:        baudelaire
(PID.TID 0000.0001) // Build date:        Wed Jun 19 16:39:40 EDT 2019
(PID.TID 0000.0001) 
(PID.TID 0000.0001) // =======================================================
(PID.TID 0000.0001) // Execution Environment parameter file "eedata"
(PID.TID 0000.0001) // =======================================================
(PID.TID 0000.0001) ># Example "eedata" file
(PID.TID 0000.0001) ># Lines beginning "#" are comments
(PID.TID 0000.0001) >#  nTx      :: No. threads per process in X
(PID.TID 0000.0001) >#  nTy      :: No. threads per process in Y
(PID.TID 0000.0001) ># debugMode :: print debug msg (sequence of S/R calls)
(PID.TID 0000.0001) > &EEPARMS
(PID.TID 0000.0001) > useCubedSphereExchange=.TRUE.,
(PID.TID 0000.0001) > nTx=1,
(PID.TID 0000.0001) > nTy=1,
(PID.TID 0000.0001) >#debugMode=.TRUE.,
(PID.TID 0000.0001) > /
(PID.TID 0000.0001) ># Note: Some systems use & as the namelist terminator (as shown here).
(PID.TID 0000.0001) >#       Other systems use a / character.
(PID.TID 0000.0001) 
(PID.TID 0000.0001) // =======================================================
(PID.TID 0000.0001) // Computational Grid Specification ( see files "SIZE.h" )
(PID.TID 0000.0001) //                                  ( and "eedata"       )
(PID.TID 0000.0001) // =======================================================
(PID.TID 0000.0001)      nPx =    1 ; /* No. processes in X */
(PID.TID 0000.0001)      nPy =    1 ; /* No. processes in Y */
(PID.TID 0000.0001)      nSx =    6 ; /* No. tiles in X per process */
(PID.TID 0000.0001)      nSy =    1 ; /* No. tiles in Y per process */
(PID.TID 0000.0001)      sNx =   32 ; /* Tile size in X */
(PID.TID 0000.0001)      sNy =   32 ; /* Tile size in Y */
(PID.TID 0000.0001)      OLx =    4 ; /* Tile overlap distance in X */
(PID.TID 0000.0001)      OLy =    4 ; /* Tile overlap distance in Y */
(PID.TID 0000.0001)      nTx =    1 ; /* No. threads in X per process */
(PID.TID 0000.0001)      nTy =    1 ; /* No. threads in Y per process */
(PID.TID 0000.0001)       Nr =   40 ; /* No. levels in the vertical   */
(PID.TID 0000.0001)       Nx =  192 ; /* Total domain size in X ( = nPx*nSx*sNx ) */
(PID.TID 0000.0001)       Ny =   32 ; /* Total domain size in Y ( = nPy*nSy*sNy ) */
(PID.TID 0000.0001)   nTiles =    6 ; /* Total no. tiles per process ( = nSx*nSy ) */
(PID.TID 0000.0001)   nProcs =    1 ; /* Total no. processes ( = nPx*nPy ) */
(PID.TID 0000.0001) nThreads =    1 ; /* Total no. threads per process ( = nTx*nTy ) */
(PID.TID 0000.0001) usingMPI =    F ; /* Flag used to control whether MPI is in use */
(PID.TID 0000.0001)                   /*  note: To execute a program with MPI calls */
(PID.TID 0000.0001)                   /*  it must be launched appropriately e.g     */
(PID.TID 0000.0001)                   /*  "mpirun -np 64 ......"                    */
(PID.TID 0000.0001) useCoupler=    F ;/* Flag used to control communications with   */
(PID.TID 0000.0001)                   /*  other model components, through a coupler */
(PID.TID 0000.0001) useNest2W_parent =    F ;/* Control 2-W Nesting comm */
(PID.TID 0000.0001) useNest2W_child  =    F ;/* Control 2-W Nesting comm */
(PID.TID 0000.0001) debugMode =    F ; /* print debug msg. (sequence of S/R calls)  */
(PID.TID 0000.0001) printMapIncludesZeros=    F ; /* print zeros in Std.Output maps */
(PID.TID 0000.0001) maxLengthPrt1D=   65 /* maxLength of 1D array printed to StdOut */
(PID.TID 0000.0001) 
(PID.TID 0000.0001) // ======================================================
(PID.TID 0000.0001) // Mapping of tiles to threads
(PID.TID 0000.0001) // ======================================================
(PID.TID 0000.0001) // -o- Thread   1, tiles (   1:   6,   1:   1)
(PID.TID 0000.0001) 
(PID.TID 0000.0001) W2_READPARMS: file data.exch2 not found
(PID.TID 0000.0001) => use W2_EXCH2 default: regular 6-facets Cube
(PID.TID 0000.0001) W2_useE2ioLayOut=    T ;/* T: use Exch2 glob IO map; F: use model default */
(PID.TID 0000.0001) W2_mapIO        =  -1 ; /* select option for Exch2 global-IO map */
(PID.TID 0000.0001) W2_printMsg     =  -1 ; /* select option for printing information */
(PID.TID 0000.0001) ===== Start setting W2 TOPOLOGY:
(PID.TID 0000.0001)  write to log-file: w2_tile_topology.0000.log
(PID.TID 0000.0001) =====       setting W2 TOPOLOGY: Done
(PID.TID 0000.0001) 
(PID.TID 0000.0001)  INI_PARMS: opening model parameter file "data"
(PID.TID 0000.0001)  OPEN_COPY_DATA_FILE: opening file data
(PID.TID 0000.0001) // =======================================================
(PID.TID 0000.0001) // Parameter file "data"
(PID.TID 0000.0001) // =======================================================
(PID.TID 0000.0001) ># ====================
(PID.TID 0000.0001) ># | Model parameters |
(PID.TID 0000.0001) ># ====================
(PID.TID 0000.0001) >#
(PID.TID 0000.0001) ># Continuous equation parameters
(PID.TID 0000.0001) > &PARM01
(PID.TID 0000.0001) >#- from Theta-Ini @ lat 45:
(PID.TID 0000.0001) > tRef= 284.5, 284.6, 284.7, 284.9, 285.2, 285.6, 286.0, 286.4, 287.0, 287.5,
(PID.TID 0000.0001) >       288.2, 288.9, 289.8, 290.7, 305.7, 325.4, 347.4, 372.3, 400.9, 434.8,
(PID.TID 0000.0001) >        475.,  521.,  573.,  631.,  696.,  767.,  845.,  932., 1027., 1132.,
(PID.TID 0000.0001) >       1247., 1376., 1521., 1686., 1877., 2104., 2388., 2771., 3369., 4778.,
(PID.TID 0000.0001) > sRef=40*0.,
(PID.TID 0000.0001) > no_slip_sides=.FALSE.,
(PID.TID 0000.0001) > no_slip_bottom=.FALSE.,
(PID.TID 0000.0001) > buoyancyRelation='ATMOSPHERIC',
(PID.TID 0000.0001) > eosType='IDEALG',
(PID.TID 0000.0001) > atm_Cp=1004.64,
(PID.TID 0000.0001) > atm_Rq=0.6078,
(PID.TID 0000.0001) > integr_GeoPot=2,
(PID.TID 0000.0001) > selectFindRoSurf=1,
(PID.TID 0000.0001) > gravity=9.80,
(PID.TID 0000.0001) > implicitFreeSurface=.TRUE.,
(PID.TID 0000.0001) > exactConserv=.TRUE.,
(PID.TID 0000.0001) > select_rStar=2,
(PID.TID 0000.0001) > nonlinFreeSurf=4,
(PID.TID 0000.0001) > hFacInf=0.2,
(PID.TID 0000.0001) > hFacSup=2.0,
(PID.TID 0000.0001) > hFacMin=1.0,
(PID.TID 0000.0001) > uniformLin_PhiSurf=.FALSE.,
(PID.TID 0000.0001) > vectorInvariantMomentum=.TRUE.,
(PID.TID 0000.0001) >#useAbsVorticity=.TRUE.,
(PID.TID 0000.0001) > selectCoriScheme=2,
(PID.TID 0000.0001) > selectVortScheme=2,
(PID.TID 0000.0001) > selectKEscheme=2,
(PID.TID 0000.0001) > addFrictionHeating=.TRUE.,
(PID.TID 0000.0001) >#tempAdvScheme=77,
(PID.TID 0000.0001) > saltAdvScheme=77,
(PID.TID 0000.0001) > staggerTimeStep=.TRUE.,
(PID.TID 0000.0001) > readBinaryPrec=64,
(PID.TID 0000.0001) > writeBinaryPrec=64,
(PID.TID 0000.0001) >#globalFiles=.TRUE.,
(PID.TID 0000.0001) > useSingleCpuIO=.TRUE.,
(PID.TID 0000.0001) > /
(PID.TID 0000.0001) >
(PID.TID 0000.0001) ># Elliptic solver parameters
(PID.TID 0000.0001) > &PARM02
(PID.TID 0000.0001) > cg2dMaxIters=200,
(PID.TID 0000.0001) > cg2dTargetResWunit=1.E-17,
(PID.TID 0000.0001) > /
(PID.TID 0000.0001) >
(PID.TID 0000.0001) ># Time stepping parameters
(PID.TID 0000.0001) > &PARM03
(PID.TID 0000.0001) > nIter0=129600,
(PID.TID 0000.0001) >#nTimeSteps=129600,
(PID.TID 0000.0001) >#endTime=31104000.,
(PID.TID 0000.0001) > deltaTClock=240.,
(PID.TID 0000.0001) > abEps=0.1,
(PID.TID 0000.0001) > forcing_In_AB=.FALSE.,
(PID.TID 0000.0001) >#- long run (> 1.yr):
(PID.TID 0000.0001) >  chkptFreq = 7776000.,
(PID.TID 0000.0001) >  pChkptFreq=31104000.,
(PID.TID 0000.0001) >  dumpFreq  =15552000.,
(PID.TID 0000.0001) >  monitorFreq= 864000.,
(PID.TID 0000.0001) >#- short run (~ months):
(PID.TID 0000.0001) >#chkptFreq = 864000.,
(PID.TID 0000.0001) >#pChkptFreq=2592000.,
(PID.TID 0000.0001) >#dumpFreq  = 2592000.,
(PID.TID 0000.0001) >#monitorFreq=86400.,
(PID.TID 0000.0001) >#- very short run:
(PID.TID 0000.0001) > nTimeSteps= 8,
(PID.TID 0000.0001) > monitorFreq= 1.,
(PID.TID 0000.0001) > /
(PID.TID 0000.0001) >
(PID.TID 0000.0001) ># Gridding parameters
(PID.TID 0000.0001) > &PARM04
(PID.TID 0000.0001) > usingCurvilinearGrid=.TRUE.,
(PID.TID 0000.0001) > horizGridFile='dxC1_dXYa',
(PID.TID 0000.0001) > radius_fromHorizGrid=6370.E3,
(PID.TID 0000.0001) > delR= 1500,  2122,  3000,  4242,  5900,  6400,  6600,  6600,  6600,  6600,
(PID.TID 0000.0001) >       6600,  6600,  6300,  5840,  4870,  4060,  3390,  2830,  2360,  1970,
(PID.TID 0000.0001) >       1518,  1170,   840,   600,   428,   306,   218,   155,   110,    78,
(PID.TID 0000.0001) >       56.0,  40.0,  29.0,  21.0,  15.0,  11.0,   8.0,   5.8,   4.2,   3.0,
(PID.TID 0000.0001) > /
(PID.TID 0000.0001) >
(PID.TID 0000.0001) ># Input datasets
(PID.TID 0000.0001) > &PARM05
(PID.TID 0000.0001) >  pSurfInitFile  ='psAnom_ini_cs32.bin',
(PID.TID 0000.0001) >  hydrogThetaFile='theta_hs94_cs32_40l.bin',
(PID.TID 0000.0001) > /
(PID.TID 0000.0001) 
(PID.TID 0000.0001)  INI_PARMS ; starts to read PARM01
(PID.TID 0000.0001)  INI_PARMS ; read PARM01 : OK
(PID.TID 0000.0001)  INI_PARMS ; starts to read PARM02
(PID.TID 0000.0001)  INI_PARMS ; read PARM02 : OK
(PID.TID 0000.0001)  INI_PARMS ; starts to read PARM03
(PID.TID 0000.0001)  INI_PARMS ; read PARM03 : OK
(PID.TID 0000.0001)  INI_PARMS ; starts to read PARM04
(PID.TID 0000.0001)  INI_PARMS ; read PARM04 : OK
(PID.TID 0000.0001)  INI_PARMS ; starts to read PARM05
(PID.TID 0000.0001)  INI_PARMS ; read PARM05 : OK
(PID.TID 0000.0001)  INI_PARMS: finished reading file "data"
(PID.TID 0000.0001)  PACKAGES_BOOT: opening data.pkg
(PID.TID 0000.0001)  OPEN_COPY_DATA_FILE: opening file data.pkg
(PID.TID 0000.0001) // =======================================================
(PID.TID 0000.0001) // Parameter file "data.pkg"
(PID.TID 0000.0001) // =======================================================
(PID.TID 0000.0001) ># Packages
(PID.TID 0000.0001) > &PACKAGES
(PID.TID 0000.0001) > useSHAP_FILT=.TRUE.,
(PID.TID 0000.0001) > useDiagnostics=.TRUE.,
(PID.TID 0000.0001) > useAtm_Phys=.TRUE.,
(PID.TID 0000.0001) > /
(PID.TID 0000.0001) 
(PID.TID 0000.0001)  PACKAGES_BOOT: finished reading data.pkg
(PID.TID 0000.0001)  PACKAGES_BOOT: On/Off package Summary
 --------  pkgs with a standard "usePKG" On/Off switch in "data.pkg":  --------
 pkg/shap_filt            compiled   and   used ( useSHAP_FILT             = T )
 pkg/atm_phys             compiled   and   used ( useAtm_Phys              = T )
 pkg/diagnostics          compiled   and   used ( useDiagnostics           = T )
 -------- pkgs without standard "usePKG" On/Off switch in "data.pkg":  --------
 pkg/generic_advdiff      compiled   and   used ( useGAD                   = T )
 pkg/mom_common           compiled   and   used ( momStepping              = T )
 pkg/mom_vecinv           compiled   and   used ( +vectorInvariantMomentum = T )
 pkg/mom_fluxform         compiled but not used ( & not vectorInvariantMom = F )
 pkg/monitor              compiled   and   used ( monitorFreq > 0.         = T )
 pkg/debug                compiled but not used ( debugMode                = F )
 pkg/exch2                compiled   and   used
 pkg/rw                   compiled   and   used
 pkg/mdsio                compiled   and   used
(PID.TID 0000.0001)  PACKAGES_BOOT: End of package Summary
(PID.TID 0000.0001) 
(PID.TID 0000.0001)  SHAP_FILT_READPARMS: opening data.shap
(PID.TID 0000.0001)  OPEN_COPY_DATA_FILE: opening file data.shap
(PID.TID 0000.0001) // =======================================================
(PID.TID 0000.0001) // Parameter file "data.shap"
(PID.TID 0000.0001) // =======================================================
(PID.TID 0000.0001) ># Shapiro Filter parameters
(PID.TID 0000.0001) > &SHAP_PARM01
(PID.TID 0000.0001) > shap_filt_uvStar=.FALSE.,
(PID.TID 0000.0001) > shap_filt_TrStagg=.TRUE.,
(PID.TID 0000.0001) > Shap_funct=2,
(PID.TID 0000.0001) > nShapT=4,
(PID.TID 0000.0001) > nShapS=0,
(PID.TID 0000.0001) > nShapUV=4,
(PID.TID 0000.0001) > nShapTrPhys=1,
(PID.TID 0000.0001) > nShapUVPhys=0,
(PID.TID 0000.0001) >#Shap_TrLength=115000.,
(PID.TID 0000.0001) >#Shap_uvLength=110000.,
(PID.TID 0000.0001) >#-- cs32:
(PID.TID 0000.0001) > Shap_TrLength=140000.,
(PID.TID 0000.0001) > Shap_Trtau=1800.,
(PID.TID 0000.0001) > Shap_uvtau= 900.,
(PID.TID 0000.0001) >#-- cs96:
(PID.TID 0000.0001) >#Shap_TrLength= 35000.,
(PID.TID 0000.0001) >#Shap_Trtau= 600.,
(PID.TID 0000.0001) >#Shap_uvtau= 300.,
(PID.TID 0000.0001) > /
(PID.TID 0000.0001) >
(PID.TID 0000.0001) 
(PID.TID 0000.0001)  SHAP_FILT_READPARMS: finished reading data.shap
(PID.TID 0000.0001) Shap_funct =   /* select Shapiro filter function */
(PID.TID 0000.0001)                       2
(PID.TID 0000.0001)     ;
(PID.TID 0000.0001) nShapT =   /* power of Shapiro filter for Temperat */
(PID.TID 0000.0001)                       4
(PID.TID 0000.0001)     ;
(PID.TID 0000.0001) nShapS =   /* power of Shapiro filter for Salinity */
(PID.TID 0000.0001)                       0
(PID.TID 0000.0001)     ;
(PID.TID 0000.0001) nShapUV =   /* power of Shapiro filter for momentum */
(PID.TID 0000.0001)                       4
(PID.TID 0000.0001)     ;
(PID.TID 0000.0001) shap_filt_uvStar = /* apply filter before Press. Solver */
(PID.TID 0000.0001)                   F
(PID.TID 0000.0001)     ;
(PID.TID 0000.0001) shap_filt_TrStagg = /* filter T,S before calc PhiHyd (staggerTimeStep) */
(PID.TID 0000.0001)                   T
(PID.TID 0000.0001)     ;
(PID.TID 0000.0001) Shap_alwaysExchUV = /* always exch(U,V)    nShapUV times*/
(PID.TID 0000.0001)                   F
(PID.TID 0000.0001)     ;
(PID.TID 0000.0001) Shap_alwaysExchTr = /* always exch(Tracer) nShapTr times*/
(PID.TID 0000.0001)                   F
(PID.TID 0000.0001)     ;
(PID.TID 0000.0001) nShapTrPhys =   /* power of physical-space filter (Tracer) */
(PID.TID 0000.0001)                       1
(PID.TID 0000.0001)     ;
(PID.TID 0000.0001) nShapUVPhys =   /* power of physical-space filter (Momentum) */
(PID.TID 0000.0001)                       0
(PID.TID 0000.0001)     ;
(PID.TID 0000.0001) Shap_Trtau =   /* time scale of Shapiro filter (Tracer) */
(PID.TID 0000.0001)                 1.800000000000000E+03
(PID.TID 0000.0001)     ;
(PID.TID 0000.0001) Shap_TrLength =   /* Length scale of Shapiro filter (Tracer) */
(PID.TID 0000.0001)                 1.400000000000000E+05
(PID.TID 0000.0001)     ;
(PID.TID 0000.0001) Shap_uvtau =   /* time scale of Shapiro filter (Momentum) */
(PID.TID 0000.0001)                 9.000000000000000E+02
(PID.TID 0000.0001)     ;
(PID.TID 0000.0001) Shap_uvLength =   /* Length scale of Shapiro filter (Momentum) */
(PID.TID 0000.0001)                 0.000000000000000E+00
(PID.TID 0000.0001)     ;
(PID.TID 0000.0001) Shap_noSlip =  /* No-slip parameter (0=Free-slip ; 1=No-slip)*/
(PID.TID 0000.0001)                 0.000000000000000E+00
(PID.TID 0000.0001)     ;
(PID.TID 0000.0001) Shap_diagFreq =   /* Frequency^-1 for diagnostic output (s)*/
(PID.TID 0000.0001)                 0.000000000000000E+00
(PID.TID 0000.0001)     ;
(PID.TID 0000.0001) ATM_PHYS_READPARMS: opening data.atm_phys
(PID.TID 0000.0001)  OPEN_COPY_DATA_FILE: opening file data.atm_phys
(PID.TID 0000.0001) // =======================================================
(PID.TID 0000.0001) // Parameter file "data.atm_phys"
(PID.TID 0000.0001) // =======================================================
(PID.TID 0000.0001) >#
(PID.TID 0000.0001) > &ATM_PHYS_PARM01
(PID.TID 0000.0001) >#atmPhys_addTendT=.FALSE.,
(PID.TID 0000.0001) >#atmPhys_addTendS=.FALSE.,
(PID.TID 0000.0001) >#atmPhys_addTendU=.FALSE.,
(PID.TID 0000.0001) >#atmPhys_addTendV=.FALSE.,
(PID.TID 0000.0001) > atmPhys_tauDampUV = 86400.,
(PID.TID 0000.0001) > atmPhys_dampUVfac = 21*0., 0.0340, 0.0364, 0.0390, 0.0419, 0.0451, 0.0476, 0.05, 0.0526,
(PID.TID 0000.0001) >       0.0556, 0.0588, 0.0625, 0.0667, 0.0714, 0.0769, 0.0833, 0.1, 0.25, 0.5618, 0.625,
(PID.TID 0000.0001) >#- initial SST file:
(PID.TID 0000.0001) > atmPhys_SSTFile='SST_symEx3.bin',
(PID.TID 0000.0001) >#- 3D ozone vmr file:
(PID.TID 0000.0001) > atmPhys_ozoneFile='ape_ozone_cs32_40l.bin',
(PID.TID 0000.0001) >#- Q-flux file:
(PID.TID 0000.0001) ># atmPhys_QflxFile='Qflux_diagnosed.bin',
(PID.TID 0000.0001) >#- update SST (default = False = keep the same SST):
(PID.TID 0000.0001) ># atmPhys_stepSST=.TRUE.,
(PID.TID 0000.0001) > /
(PID.TID 0000.0001) 
(PID.TID 0000.0001) ATM_PHYS_READPARMS: finished reading data.atm_phys
(PID.TID 0000.0001)  DIAGNOSTICS_READPARMS: opening data.diagnostics
(PID.TID 0000.0001)  OPEN_COPY_DATA_FILE: opening file data.diagnostics
(PID.TID 0000.0001) // =======================================================
(PID.TID 0000.0001) // Parameter file "data.diagnostics"
(PID.TID 0000.0001) // =======================================================
(PID.TID 0000.0001) ># Diagnostic Package Choices
(PID.TID 0000.0001) >#--------------------
(PID.TID 0000.0001) >#  dumpAtLast (logical): always write output at the end of simulation (default=F)
(PID.TID 0000.0001) >#  diag_mnc   (logical): write to NetCDF files (default=useMNC)
(PID.TID 0000.0001) >#--for each output-stream:
(PID.TID 0000.0001) >#  fileName(n) : prefix of the output file name (max 80c long) for outp.stream n
(PID.TID 0000.0001) >#  frequency(n):< 0 : write snap-shot output every |frequency| seconds
(PID.TID 0000.0001) >#               > 0 : write time-average output every frequency seconds
(PID.TID 0000.0001) >#  timePhase(n)     : write at time = timePhase + multiple of |frequency|
(PID.TID 0000.0001) >#    averagingFreq  : frequency (in s) for periodic averaging interval
(PID.TID 0000.0001) >#    averagingPhase : phase     (in s) for periodic averaging interval
(PID.TID 0000.0001) >#    repeatCycle    : number of averaging intervals in 1 cycle
(PID.TID 0000.0001) >#  levels(:,n) : list of levels to write to file (Notes: declared as REAL)
(PID.TID 0000.0001) >#                when this entry is missing, select all common levels of this list
(PID.TID 0000.0001) >#  fields(:,n) : list of selected diagnostics fields (8.c) in outp.stream n
(PID.TID 0000.0001) >#                (see "available_diagnostics.log" file for the full list of diags)
(PID.TID 0000.0001) >#  missing_value(n) : missing value for real-type fields in output file "n"
(PID.TID 0000.0001) >#  fileFlags(n)     : specific code (8c string) for output file "n"
(PID.TID 0000.0001) >#--------------------
(PID.TID 0000.0001) > &DIAGNOSTICS_LIST
(PID.TID 0000.0001) ># diag_mnc     = .FALSE.,
(PID.TID 0000.0001) >  dumpAtLast   = .TRUE.,
(PID.TID 0000.0001) >#--
(PID.TID 0000.0001) >  fields(1:17,1) = 'ETAN    ','ETANSQ  ','DETADT2 ','PHI_SURF',
(PID.TID 0000.0001) >                   'AtPhCnvP','AtPhLscP','AtPhCAPE',
(PID.TID 0000.0001) >                   'AtPhSens','AtPhEvap','AtPhTauX','AtPhTauY',
(PID.TID 0000.0001) >                   'AtPh_SST','AtPhNTSR','AtPhOLR ',
(PID.TID 0000.0001) >                   'AtPhNSSR','AtPhDSLR','AtPhUSLR',
(PID.TID 0000.0001) >   fileName(1) = 'surfDiag',
(PID.TID 0000.0001) ># fileFlags(1) = 'D       ',
(PID.TID 0000.0001) >  frequency(1) =  7776000.,
(PID.TID 0000.0001) ># frequency(1) =  2592000.,
(PID.TID 0000.0001) ># ( = 1 month)
(PID.TID 0000.0001) >#-
(PID.TID 0000.0001) >  fields(1:21,2) = 'UVEL    ','VVEL    ','WVEL    ','THETA   ','SALT    ',
(PID.TID 0000.0001) >                   'UVELSQ  ','VVELSQ  ','WVELSQ  ','THETASQ ','SALTSQ  ',
(PID.TID 0000.0001) >                   'UVELMASS','VVELMASS','UE_VEL_C','VN_VEL_C','UV_VEL_C',
(PID.TID 0000.0001) >                   'WU_VEL  ','WV_VEL  ','UVELTH  ','VVELTH  ','WVELTH  ',
(PID.TID 0000.0001) >                   'RELHUM  ',
(PID.TID 0000.0001) >#                  'ADVx_TH ','ADVy_TH ','ADVr_TH ',
(PID.TID 0000.0001) >#                  'ADVx_SLT','ADVy_SLT','ADVr_SLT',
(PID.TID 0000.0001) >   fileName(2) = 'dynDiag',
(PID.TID 0000.0001) >  frequency(2) =  7776000.,
(PID.TID 0000.0001) ># frequency(2) =  2592000.,
(PID.TID 0000.0001) >#-
(PID.TID 0000.0001) >  fields(1:11,3) = 'AtPhdTdt','AtPhdQdt','AtPhdUdt','AtPhdVdt',
(PID.TID 0000.0001) >#                  'AtPhdtTg','AtPhdtQg','AtPhDifT','AtPhDifM',
(PID.TID 0000.0001) >                   'AtPhDisH','HeatDiss','MoistCor','SHAP_dKE',
(PID.TID 0000.0001) >                   'AtPhdTrd','AtPhdTlc','AtPhdTcv',
(PID.TID 0000.0001) >   fileName(3) = 'physDiag',
(PID.TID 0000.0001) >  frequency(3) =  7776000.,
(PID.TID 0000.0001) ># frequency(3) =  2592000.,
(PID.TID 0000.0001) >#-
(PID.TID 0000.0001) >  fields(1:8,4)  = 'AtPhCnvP','AtPhLscP','AtPhCAPE',
(PID.TID 0000.0001) >                   'AtPhCnIn','AtPhKlzb','AtPhConv',
(PID.TID 0000.0001) >                   'AtPhRlxT','AtPhRlxQ',
(PID.TID 0000.0001) ># fileName(4) = 'convDiag',
(PID.TID 0000.0001) >  frequency(4) =  7776000.,
(PID.TID 0000.0001) ># frequency(4) =  2592000.,
(PID.TID 0000.0001) >#-
(PID.TID 0000.0001) >  fields(1:4,5)  = 'AtPhNSR ','AtPhNLR ','AtPhDSR ','AtPhDLR ',
(PID.TID 0000.0001) >   fileName(5) = 'radDiag',
(PID.TID 0000.0001) >  frequency(5) =  7776000.,
(PID.TID 0000.0001) ># frequency(5) =  2592000.,
(PID.TID 0000.0001) >#-
(PID.TID 0000.0001) >  fields(1:18,6) = 'Um_Advec','Vm_Advec','Um_dPHdx','Vm_dPHdy',
(PID.TID 0000.0001) >                   'Um_Ext  ','Vm_Ext  ','SHAP_dU ','SHAP_dV ',
(PID.TID 0000.0001) >                   'Um_AdvRe','Vm_AdvRe','Um_AdvZ3','Vm_AdvZ3',
(PID.TID 0000.0001) >                   'AB_gU   ','AB_gV   ',
(PID.TID 0000.0001) >                   'AtPhdUdt','AtPhdVdt',
(PID.TID 0000.0001) >                   'Um_Cori ','Vm_Cori ',
(PID.TID 0000.0001) >#                  'UVEL    ','VVEL    ','momKE   ',
(PID.TID 0000.0001) >  fileFlags(6) = '  h     ',
(PID.TID 0000.0001) >   fileName(6) = 'momDiag',
(PID.TID 0000.0001) >  frequency(6) = 15552000.,
(PID.TID 0000.0001) ># frequency(6) =  7776000.,
(PID.TID 0000.0001) ># frequency(6) =  2592000.,
(PID.TID 0000.0001) >#-
(PID.TID 0000.0001) > /
(PID.TID 0000.0001) >
(PID.TID 0000.0001) >#--------------------
(PID.TID 0000.0001) ># Parameter for Diagnostics of per level statistics:
(PID.TID 0000.0001) >#--------------------
(PID.TID 0000.0001) >#  diagSt_mnc (logical): write stat-diags to NetCDF files (default=diag_mnc)
(PID.TID 0000.0001) >#  diagSt_regMaskFile : file containing the region-mask to read-in
(PID.TID 0000.0001) >#  nSetRegMskFile   : number of region-mask sets within the region-mask file
(PID.TID 0000.0001) >#  set_regMask(i)   : region-mask set-index that identifies the region "i"
(PID.TID 0000.0001) >#  val_regMask(i)   : region "i" identifier value in the region mask
(PID.TID 0000.0001) >#--for each output-stream:
(PID.TID 0000.0001) >#  stat_fName(n) : prefix of the output file name (max 80c long) for outp.stream n
(PID.TID 0000.0001) >#  stat_freq(n):< 0 : write snap-shot output every |stat_freq| seconds
(PID.TID 0000.0001) >#               > 0 : write time-average output every stat_freq seconds
(PID.TID 0000.0001) >#  stat_phase(n)    : write at time = stat_phase + multiple of |stat_freq|
(PID.TID 0000.0001) >#  stat_region(:,n) : list of "regions" (default: 1 region only=global)
(PID.TID 0000.0001) >#  stat_fields(:,n) : list of selected diagnostics fields (8.c) in outp.stream n
(PID.TID 0000.0001) >#                (see "available_diagnostics.log" file for the full list of diags)
(PID.TID 0000.0001) >#--------------------
(PID.TID 0000.0001) > &DIAG_STATIS_PARMS
(PID.TID 0000.0001) > stat_fields(1:11,1) = 'ETAN    ','THETA   ','SALT    ','RELHUM  ',
(PID.TID 0000.0001) >                       'UE_VEL_C','VN_VEL_C','WVEL    ',
(PID.TID 0000.0001) >                       'AtPhdTdt','AtPhdQdt','AtPhdUdt','AtPhdVdt',
(PID.TID 0000.0001) >  stat_fName(1) = 'dynStDiag',
(PID.TID 0000.0001) >   stat_freq(1) = 86400.,
(PID.TID 0000.0001) >#  stat_freq(1) = 3600.,
(PID.TID 0000.0001) >#  stat_phase(1) = 0.,
(PID.TID 0000.0001) > stat_fields(1:15,2) = 'AtPhdtTg','AtPhdtQg','AtPhDifT','AtPhDifM',
(PID.TID 0000.0001) >                       'AtPhDisH','HeatDiss','MoistCor','SHAP_dKE',
(PID.TID 0000.0001) >                       'AtPhdTrd','AtPhdTlc','AtPhdTcv',
(PID.TID 0000.0001) >                       'AtPhNSR ','AtPhNLR ','AtPhDSR ','AtPhDLR ',
(PID.TID 0000.0001) >  stat_fName(2) = 'phyStDiag',
(PID.TID 0000.0001) >   stat_freq(2) = 86400.,
(PID.TID 0000.0001) >#  stat_freq(2) = 3600.,
(PID.TID 0000.0001) > stat_fields(1:13,3) = 'AtPhSens','AtPhEvap','AtPhTauX','AtPhTauY',
(PID.TID 0000.0001) >                       'AtPhCnvP','AtPhLscP','AtPhCAPE',
(PID.TID 0000.0001) >                       'AtPh_SST','AtPhNTSR','AtPhOLR ',
(PID.TID 0000.0001) >                       'AtPhNSSR','AtPhDSLR','AtPhUSLR',
(PID.TID 0000.0001) >  stat_fName(3) = 'flxStDiag',
(PID.TID 0000.0001) >   stat_freq(3) = 86400.,
(PID.TID 0000.0001) >#  stat_freq(3) = 3600.,
(PID.TID 0000.0001) > /
(PID.TID 0000.0001) >
(PID.TID 0000.0001) 
(PID.TID 0000.0001) S/R DIAGNOSTICS_READPARMS, read namelist "diagnostics_list": start
(PID.TID 0000.0001) S/R DIAGNOSTICS_READPARMS, read namelist "diagnostics_list": OK
(PID.TID 0000.0001) S/R DIAGNOSTICS_READPARMS, read namelist "DIAG_STATIS_PARMS": start
(PID.TID 0000.0001) S/R DIAGNOSTICS_READPARMS, read namelist "DIAG_STATIS_PARMS": OK
(PID.TID 0000.0001)  DIAGNOSTICS_READPARMS: global parameter summary:
(PID.TID 0000.0001)  dumpAtLast = /* always write time-ave diags at the end */
(PID.TID 0000.0001)                   T
(PID.TID 0000.0001)     ;
(PID.TID 0000.0001)  diag_mnc =   /* write NetCDF output files */
(PID.TID 0000.0001)                   F
(PID.TID 0000.0001)     ;
(PID.TID 0000.0001)  useMissingValue = /* put MissingValue where mask = 0 */
(PID.TID 0000.0001)                   F
(PID.TID 0000.0001)     ;
(PID.TID 0000.0001)  diagCG_maxIters = /* max number of iters in diag_cg2d */
(PID.TID 0000.0001)                     200
(PID.TID 0000.0001)     ;
(PID.TID 0000.0001)  diagCG_resTarget = /* residual target for diag_cg2d */
(PID.TID 0000.0001)                 1.000000000000000E-07
(PID.TID 0000.0001)     ;
(PID.TID 0000.0001)  diagCG_pcOffDFac = /* preconditioner off-diagonal factor */
(PID.TID 0000.0001)                 9.611687812379854E-01
(PID.TID 0000.0001)     ;
(PID.TID 0000.0001) -----------------------------------------------------
(PID.TID 0000.0001)  DIAGNOSTICS_READPARMS: active diagnostics summary:
(PID.TID 0000.0001) -----------------------------------------------------
(PID.TID 0000.0001) Creating Output Stream: surfDiag
(PID.TID 0000.0001) Output Frequency:    7776000.000000 ; Phase:           0.000000
(PID.TID 0000.0001)  Averaging Freq.:    7776000.000000 , Phase:           0.000000 , Cycle:   1
(PID.TID 0000.0001)  missing value: -9.990000000000E+02
(PID.TID 0000.0001)  Levels:    will be set later
(PID.TID 0000.0001)  Fields:    ETAN     ETANSQ   DETADT2  PHI_SURF AtPhCnvP AtPhLscP AtPhCAPE AtPhSens AtPhEvap AtPhTauX
(PID.TID 0000.0001)  Fields:    AtPhTauY AtPh_SST AtPhNTSR AtPhOLR  AtPhNSSR AtPhDSLR AtPhUSLR
(PID.TID 0000.0001) Creating Output Stream: dynDiag
(PID.TID 0000.0001) Output Frequency:    7776000.000000 ; Phase:           0.000000
(PID.TID 0000.0001)  Averaging Freq.:    7776000.000000 , Phase:           0.000000 , Cycle:   1
(PID.TID 0000.0001)  missing value: -9.990000000000E+02
(PID.TID 0000.0001)  Levels:    will be set later
(PID.TID 0000.0001)  Fields:    UVEL     VVEL     WVEL     THETA    SALT     UVELSQ   VVELSQ   WVELSQ   THETASQ  SALTSQ
(PID.TID 0000.0001)  Fields:    UVELMASS VVELMASS UE_VEL_C VN_VEL_C UV_VEL_C WU_VEL   WV_VEL   UVELTH   VVELTH   WVELTH
(PID.TID 0000.0001)  Fields:    RELHUM
(PID.TID 0000.0001) Creating Output Stream: physDiag
(PID.TID 0000.0001) Output Frequency:    7776000.000000 ; Phase:           0.000000
(PID.TID 0000.0001)  Averaging Freq.:    7776000.000000 , Phase:           0.000000 , Cycle:   1
(PID.TID 0000.0001)  missing value: -9.990000000000E+02
(PID.TID 0000.0001)  Levels:    will be set later
(PID.TID 0000.0001)  Fields:    AtPhdTdt AtPhdQdt AtPhdUdt AtPhdVdt AtPhDisH HeatDiss MoistCor SHAP_dKE AtPhdTrd AtPhdTlc
(PID.TID 0000.0001)  Fields:    AtPhdTcv
(PID.TID 0000.0001) Creating Output Stream: radDiag
(PID.TID 0000.0001) Output Frequency:    7776000.000000 ; Phase:           0.000000
(PID.TID 0000.0001)  Averaging Freq.:    7776000.000000 , Phase:           0.000000 , Cycle:   1
(PID.TID 0000.0001)  missing value: -9.990000000000E+02
(PID.TID 0000.0001)  Levels:    will be set later
(PID.TID 0000.0001)  Fields:    AtPhNSR  AtPhNLR  AtPhDSR  AtPhDLR
(PID.TID 0000.0001) Creating Output Stream: momDiag
(PID.TID 0000.0001) Output Frequency:   15552000.000000 ; Phase:           0.000000
(PID.TID 0000.0001)  Averaging Freq.:   15552000.000000 , Phase:           0.000000 , Cycle:   1
(PID.TID 0000.0001)  missing value: -9.990000000000E+02 ; F-Flags="  h     "
(PID.TID 0000.0001)  Levels:    will be set later
(PID.TID 0000.0001)  Fields:    Um_Advec Vm_Advec Um_dPHdx Vm_dPHdy Um_Ext   Vm_Ext   SHAP_dU  SHAP_dV  Um_AdvRe Vm_AdvRe
(PID.TID 0000.0001)  Fields:    Um_AdvZ3 Vm_AdvZ3 AB_gU    AB_gV    AtPhdUdt AtPhdVdt Um_Cori  Vm_Cori
(PID.TID 0000.0001) -----------------------------------------------------
(PID.TID 0000.0001)  DIAGNOSTICS_READPARMS: statistics diags. summary:
(PID.TID 0000.0001) Creating Stats. Output Stream: dynStDiag
(PID.TID 0000.0001) Output Frequency:      86400.000000 ; Phase:           0.000000
(PID.TID 0000.0001)  Regions:   0
(PID.TID 0000.0001)  Fields:    ETAN     THETA    SALT     RELHUM   UE_VEL_C VN_VEL_C WVEL     AtPhdTdt AtPhdQdt AtPhdUdt
(PID.TID 0000.0001)  Fields:    AtPhdVdt
(PID.TID 0000.0001) Creating Stats. Output Stream: phyStDiag
(PID.TID 0000.0001) Output Frequency:      86400.000000 ; Phase:           0.000000
(PID.TID 0000.0001)  Regions:   0
(PID.TID 0000.0001)  Fields:    AtPhdtTg AtPhdtQg AtPhDifT AtPhDifM AtPhDisH HeatDiss MoistCor SHAP_dKE AtPhdTrd AtPhdTlc
(PID.TID 0000.0001)  Fields:    AtPhdTcv AtPhNSR  AtPhNLR  AtPhDSR  AtPhDLR
(PID.TID 0000.0001) Creating Stats. Output Stream: flxStDiag
(PID.TID 0000.0001) Output Frequency:      86400.000000 ; Phase:           0.000000
(PID.TID 0000.0001)  Regions:   0
(PID.TID 0000.0001)  Fields:    AtPhSens AtPhEvap AtPhTauX AtPhTauY AtPhCnvP AtPhLscP AtPhCAPE AtPh_SST AtPhNTSR AtPhOLR
(PID.TID 0000.0001)  Fields:    AtPhNSSR AtPhDSLR AtPhUSLR
(PID.TID 0000.0001) -----------------------------------------------------
(PID.TID 0000.0001) 
(PID.TID 0000.0001) SET_PARMS: done
(PID.TID 0000.0001) Enter INI_VERTICAL_GRID: setInterFDr=    T ; setCenterDr=    F
(PID.TID 0000.0001) tile:   1 ; Read from file dxC1_dXYa.face001.bin
(PID.TID 0000.0001)   => xC yC dxF dyF rA xG yG dxV dyU rAz dxC dyC rAw rAs dxG dyG AngleCS AngleSN
(PID.TID 0000.0001) tile:   2 ; Read from file dxC1_dXYa.face002.bin
(PID.TID 0000.0001)   => xC yC dxF dyF rA xG yG dxV dyU rAz dxC dyC rAw rAs dxG dyG AngleCS AngleSN
(PID.TID 0000.0001) tile:   3 ; Read from file dxC1_dXYa.face003.bin
(PID.TID 0000.0001)   => xC yC dxF dyF rA xG yG dxV dyU rAz dxC dyC rAw rAs dxG dyG AngleCS AngleSN
(PID.TID 0000.0001) tile:   4 ; Read from file dxC1_dXYa.face004.bin
(PID.TID 0000.0001)   => xC yC dxF dyF rA xG yG dxV dyU rAz dxC dyC rAw rAs dxG dyG AngleCS AngleSN
(PID.TID 0000.0001) tile:   5 ; Read from file dxC1_dXYa.face005.bin
(PID.TID 0000.0001)   => xC yC dxF dyF rA xG yG dxV dyU rAz dxC dyC rAw rAs dxG dyG AngleCS AngleSN
(PID.TID 0000.0001) tile:   6 ; Read from file dxC1_dXYa.face006.bin
(PID.TID 0000.0001)   => xC yC dxF dyF rA xG yG dxV dyU rAz dxC dyC rAw rAs dxG dyG AngleCS AngleSN
(PID.TID 0000.0001) %MON XC_max                       =   1.7854351589505E+02
(PID.TID 0000.0001) %MON XC_min                       =  -1.7854351589505E+02
(PID.TID 0000.0001) %MON XC_mean                      =  -4.6999441375798E-15
(PID.TID 0000.0001) %MON XC_sd                        =   1.0355545336287E+02
(PID.TID 0000.0001) %MON XG_max                       =   1.8000000000000E+02
(PID.TID 0000.0001) %MON XG_min                       =  -1.7708797161002E+02
(PID.TID 0000.0001) %MON XG_mean                      =   1.8603515625000E+00
(PID.TID 0000.0001) %MON XG_sd                        =   1.0357130300504E+02
(PID.TID 0000.0001) %MON DXC_max                      =   3.2375185836900E+05
(PID.TID 0000.0001) %MON DXC_min                      =   1.1353730006923E+05
(PID.TID 0000.0001) %MON DXC_mean                     =   2.8606102525036E+05
(PID.TID 0000.0001) %MON DXC_sd                       =   3.4020997630307E+04
(PID.TID 0000.0001) %MON DXF_max                      =   3.2369947500827E+05
(PID.TID 0000.0001) %MON DXF_min                      =   1.2020820513318E+05
(PID.TID 0000.0001) %MON DXF_mean                     =   2.8605437324820E+05
(PID.TID 0000.0001) %MON DXF_sd                       =   3.4050524252539E+04
(PID.TID 0000.0001) %MON DXG_max                      =   3.2375195872773E+05
(PID.TID 0000.0001) %MON DXG_min                      =   1.0098378008791E+05
(PID.TID 0000.0001) %MON DXG_mean                     =   2.8603818508931E+05
(PID.TID 0000.0001) %MON DXG_sd                       =   3.4140406908005E+04
(PID.TID 0000.0001) %MON DXV_max                      =   3.2380418162750E+05
(PID.TID 0000.0001) %MON DXV_min                      =   8.0152299824136E+04
(PID.TID 0000.0001) %MON DXV_mean                     =   2.8603970633619E+05
(PID.TID 0000.0001) %MON DXV_sd                       =   3.4145142117723E+04
(PID.TID 0000.0001) %MON YC_max                       =   8.7940663871962E+01
(PID.TID 0000.0001) %MON YC_min                       =  -8.7940663871962E+01
(PID.TID 0000.0001) %MON YC_mean                      =   0.0000000000000E+00
(PID.TID 0000.0001) %MON YC_sd                        =   3.8676242969072E+01
(PID.TID 0000.0001) %MON YG_max                       =   9.0000000000000E+01
(PID.TID 0000.0001) %MON YG_min                       =  -9.0000000000000E+01
(PID.TID 0000.0001) %MON YG_mean                      =  -1.1842378929335E-15
(PID.TID 0000.0001) %MON YG_sd                        =   3.8676895860710E+01
(PID.TID 0000.0001) %MON DYC_max                      =   3.2375185836900E+05
(PID.TID 0000.0001) %MON DYC_min                      =   1.1353730006923E+05
(PID.TID 0000.0001) %MON DYC_mean                     =   2.8606102525036E+05
(PID.TID 0000.0001) %MON DYC_sd                       =   3.4020997630307E+04
(PID.TID 0000.0001) %MON DYF_max                      =   3.2369947500827E+05
(PID.TID 0000.0001) %MON DYF_min                      =   1.2020820513318E+05
(PID.TID 0000.0001) %MON DYF_mean                     =   2.8605437324820E+05
(PID.TID 0000.0001) %MON DYF_sd                       =   3.4050524252539E+04
(PID.TID 0000.0001) %MON DYG_max                      =   3.2375195872773E+05
(PID.TID 0000.0001) %MON DYG_min                      =   1.0098378008791E+05
(PID.TID 0000.0001) %MON DYG_mean                     =   2.8603818508931E+05
(PID.TID 0000.0001) %MON DYG_sd                       =   3.4140406908005E+04
(PID.TID 0000.0001) %MON DYU_max                      =   3.2380418162750E+05
(PID.TID 0000.0001) %MON DYU_min                      =   8.0152299824136E+04
(PID.TID 0000.0001) %MON DYU_mean                     =   2.8603970633619E+05
(PID.TID 0000.0001) %MON DYU_sd                       =   3.4145142117723E+04
(PID.TID 0000.0001) %MON RA_max                       =   1.0474757731659E+11
(PID.TID 0000.0001) %MON RA_min                       =   1.5497867056722E+10
(PID.TID 0000.0001) %MON RA_mean                      =   8.2985711332657E+10
(PID.TID 0000.0001) %MON RA_sd                        =   1.7448591913787E+10
(PID.TID 0000.0001) %MON RAW_max                      =   1.0481529828871E+11
(PID.TID 0000.0001) %MON RAW_min                      =   1.1465425741966E+10
(PID.TID 0000.0001) %MON RAW_mean                     =   8.2985711332657E+10
(PID.TID 0000.0001) %MON RAW_sd                       =   1.7503889570793E+10
(PID.TID 0000.0001) %MON RAS_max                      =   1.0481529828871E+11
(PID.TID 0000.0001) %MON RAS_min                      =   1.1465425741966E+10
(PID.TID 0000.0001) %MON RAS_mean                     =   8.2985711332657E+10
(PID.TID 0000.0001) %MON RAS_sd                       =   1.7503889570793E+10
(PID.TID 0000.0001) %MON RAZ_max                      =   1.0484349334619E+11
(PID.TID 0000.0001) %MON RAZ_min                      =   8.8317900612505E+09
(PID.TID 0000.0001) %MON RAZ_mean                     =   8.2992246709235E+10
(PID.TID 0000.0001) %MON RAZ_sd                       =   1.7482297311044E+10
(PID.TID 0000.0001) %MON AngleCS_max                  =   9.9999994756719E-01
(PID.TID 0000.0001) %MON AngleCS_min                  =  -9.9968286884824E-01
(PID.TID 0000.0001) %MON AngleCS_mean                 =   3.3078922539000E-01
(PID.TID 0000.0001) %MON AngleCS_sd                   =   6.2496278958502E-01
(PID.TID 0000.0001) %MON AngleSN_max                  =   9.9968286884824E-01
(PID.TID 0000.0001) %MON AngleSN_min                  =  -9.9999994756719E-01
(PID.TID 0000.0001) %MON AngleSN_mean                 =  -3.3078922539000E-01
(PID.TID 0000.0001) %MON AngleSN_sd                   =   6.2496278958502E-01
(PID.TID 0000.0001) 
(PID.TID 0000.0001) SET_REF_STATE: PhiRef/g [m] at level Center (integer)
(PID.TID 0000.0001)                      and at level Interface (half-int.) :
(PID.TID 0000.0001)  K=  0.5  ;  r=       100000.0  ;  phiRef/g=        0.000
(PID.TID 0000.0001)  K=  1.0  ;  r=        99250.0  ;  phiRef/g=       62.665
(PID.TID 0000.0001)  K=  1.5  ;  r=        98500.0  ;  phiRef/g=      139.026
(PID.TID 0000.0001)  K=  2.0  ;  r=        97439.0  ;  phiRef/g=      215.388
(PID.TID 0000.0001)  K=  2.5  ;  r=        96378.0  ;  phiRef/g=      325.123
(PID.TID 0000.0001)  K=  3.0  ;  r=        94878.0  ;  phiRef/g=      434.858
(PID.TID 0000.0001)  K=  3.5  ;  r=        93378.0  ;  phiRef/g=      593.683
(PID.TID 0000.0001)  K=  4.0  ;  r=        91257.0  ;  phiRef/g=      752.507
(PID.TID 0000.0001)  K=  4.5  ;  r=        89136.0  ;  phiRef/g=      982.682
(PID.TID 0000.0001)  K=  5.0  ;  r=        86186.0  ;  phiRef/g=     1212.856
(PID.TID 0000.0001)  K=  5.5  ;  r=        83236.0  ;  phiRef/g=     1505.373
(PID.TID 0000.0001)  K=  6.0  ;  r=        80036.0  ;  phiRef/g=     1797.891
(PID.TID 0000.0001)  K=  6.5  ;  r=        76836.0  ;  phiRef/g=     2125.068
(PID.TID 0000.0001)  K=  7.0  ;  r=        73536.0  ;  phiRef/g=     2452.244
(PID.TID 0000.0001)  K=  7.5  ;  r=        70236.0  ;  phiRef/g=     2806.330
(PID.TID 0000.0001)  K=  8.0  ;  r=        66936.0  ;  phiRef/g=     3160.416
(PID.TID 0000.0001)  K=  8.5  ;  r=        63636.0  ;  phiRef/g=     3540.398
(PID.TID 0000.0001)  K=  9.0  ;  r=        60336.0  ;  phiRef/g=     3920.380
(PID.TID 0000.0001)  K=  9.5  ;  r=        57036.0  ;  phiRef/g=     4331.330
(PID.TID 0000.0001)  K= 10.0  ;  r=        53736.0  ;  phiRef/g=     4742.280
(PID.TID 0000.0001)  K= 10.5  ;  r=        50436.0  ;  phiRef/g=     5191.047
(PID.TID 0000.0001)  K= 11.0  ;  r=        47136.0  ;  phiRef/g=     5639.814
(PID.TID 0000.0001)  K= 11.5  ;  r=        43836.0  ;  phiRef/g=     6136.007
(PID.TID 0000.0001)  K= 12.0  ;  r=        40536.0  ;  phiRef/g=     6632.201
(PID.TID 0000.0001)  K= 12.5  ;  r=        37236.0  ;  phiRef/g=     7176.482
(PID.TID 0000.0001)  K= 13.0  ;  r=        34086.0  ;  phiRef/g=     7720.763
(PID.TID 0000.0001)  K= 13.5  ;  r=        30936.0  ;  phiRef/g=     8305.029
(PID.TID 0000.0001)  K= 14.0  ;  r=        28016.0  ;  phiRef/g=     8889.295
(PID.TID 0000.0001)  K= 14.5  ;  r=        25096.0  ;  phiRef/g=     9485.496
(PID.TID 0000.0001)  K= 15.0  ;  r=        22661.0  ;  phiRef/g=    10081.698
(PID.TID 0000.0001)  K= 15.5  ;  r=        20226.0  ;  phiRef/g=    10661.583
(PID.TID 0000.0001)  K= 16.0  ;  r=        18196.0  ;  phiRef/g=    11241.468
(PID.TID 0000.0001)  K= 16.5  ;  r=        16166.0  ;  phiRef/g=    11809.195
(PID.TID 0000.0001)  K= 17.0  ;  r=        14471.0  ;  phiRef/g=    12376.922
(PID.TID 0000.0001)  K= 17.5  ;  r=        12776.0  ;  phiRef/g=    12937.621
(PID.TID 0000.0001)  K= 18.0  ;  r=        11361.0  ;  phiRef/g=    13498.320
(PID.TID 0000.0001)  K= 18.5  ;  r=         9946.0  ;  phiRef/g=    14057.706
(PID.TID 0000.0001)  K= 19.0  ;  r=         8766.0  ;  phiRef/g=    14617.092
(PID.TID 0000.0001)  K= 19.5  ;  r=         7586.0  ;  phiRef/g=    15183.369
(PID.TID 0000.0001)  K= 20.0  ;  r=         6601.0  ;  phiRef/g=    15749.646
(PID.TID 0000.0001)  K= 20.5  ;  r=         5616.0  ;  phiRef/g=    16312.602
(PID.TID 0000.0001)  K= 21.0  ;  r=         4857.0  ;  phiRef/g=    16875.558
(PID.TID 0000.0001)  K= 21.5  ;  r=         4098.0  ;  phiRef/g=    17418.784
(PID.TID 0000.0001)  K= 22.0  ;  r=         3513.0  ;  phiRef/g=    17962.010
(PID.TID 0000.0001)  K= 22.5  ;  r=         2928.0  ;  phiRef/g=    18476.194
(PID.TID 0000.0001)  K= 23.0  ;  r=         2508.0  ;  phiRef/g=    18990.379
(PID.TID 0000.0001)  K= 23.5  ;  r=         2088.0  ;  phiRef/g=    19459.217
(PID.TID 0000.0001)  K= 24.0  ;  r=         1788.0  ;  phiRef/g=    19928.056
(PID.TID 0000.0001)  K= 24.5  ;  r=         1488.0  ;  phiRef/g=    20354.345
(PID.TID 0000.0001)  K= 25.0  ;  r=         1274.0  ;  phiRef/g=    20780.634
(PID.TID 0000.0001)  K= 25.5  ;  r=         1060.0  ;  phiRef/g=    21168.489
(PID.TID 0000.0001)  K= 26.0  ;  r=          907.0  ;  phiRef/g=    21556.344
(PID.TID 0000.0001)  K= 26.5  ;  r=          754.0  ;  phiRef/g=    21909.419
(PID.TID 0000.0001)  K= 27.0  ;  r=          645.0  ;  phiRef/g=    22262.494
(PID.TID 0000.0001)  K= 27.5  ;  r=          536.0  ;  phiRef/g=    22583.158
(PID.TID 0000.0001)  K= 28.0  ;  r=          458.5  ;  phiRef/g=    22903.821
(PID.TID 0000.0001)  K= 28.5  ;  r=          381.0  ;  phiRef/g=    23194.508
(PID.TID 0000.0001)  K= 29.0  ;  r=          326.0  ;  phiRef/g=    23485.196
(PID.TID 0000.0001)  K= 29.5  ;  r=          271.0  ;  phiRef/g=    23748.228
(PID.TID 0000.0001)  K= 30.0  ;  r=          232.0  ;  phiRef/g=    24011.261
(PID.TID 0000.0001)  K= 30.5  ;  r=          193.0  ;  phiRef/g=    24250.354
(PID.TID 0000.0001)  K= 31.0  ;  r=          165.0  ;  phiRef/g=    24489.448
(PID.TID 0000.0001)  K= 31.5  ;  r=          137.0  ;  phiRef/g=    24708.164
(PID.TID 0000.0001)  K= 32.0  ;  r=          117.0  ;  phiRef/g=    24926.880
(PID.TID 0000.0001)  K= 32.5  ;  r=           97.0  ;  phiRef/g=    25128.208
(PID.TID 0000.0001)  K= 33.0  ;  r=           82.5  ;  phiRef/g=    25329.536
(PID.TID 0000.0001)  K= 33.5  ;  r=           68.0  ;  phiRef/g=    25517.499
(PID.TID 0000.0001)  K= 34.0  ;  r=           57.5  ;  phiRef/g=    25705.463
(PID.TID 0000.0001)  K= 34.5  ;  r=           47.0  ;  phiRef/g=    25881.443
(PID.TID 0000.0001)  K= 35.0  ;  r=           39.5  ;  phiRef/g=    26057.423
(PID.TID 0000.0001)  K= 35.5  ;  r=           32.0  ;  phiRef/g=    26224.910
(PID.TID 0000.0001)  K= 36.0  ;  r=           26.5  ;  phiRef/g=    26392.397
(PID.TID 0000.0001)  K= 36.5  ;  r=           21.0  ;  phiRef/g=    26557.556
(PID.TID 0000.0001)  K= 37.0  ;  r=           17.0  ;  phiRef/g=    26722.716
(PID.TID 0000.0001)  K= 37.5  ;  r=           13.0  ;  phiRef/g=    26891.534
(PID.TID 0000.0001)  K= 38.0  ;  r=           10.1  ;  phiRef/g=    27060.353
(PID.TID 0000.0001)  K= 38.5  ;  r=            7.2  ;  phiRef/g=    27247.012
(PID.TID 0000.0001)  K= 39.0  ;  r=            5.1  ;  phiRef/g=    27433.672
(PID.TID 0000.0001)  K= 39.5  ;  r=            3.0  ;  phiRef/g=    27689.146
(PID.TID 0000.0001)  K= 40.0  ;  r=            1.5  ;  phiRef/g=    27944.620
(PID.TID 0000.0001)  K= 40.5  ;  r=            0.0  ;  phiRef/g=    29165.314
(PID.TID 0000.0001) // =======================================================
(PID.TID 0000.0001) // Field Model R_low (ini_masks_etc)
(PID.TID 0000.0001) // CMIN =          1.000000000000000E+32
(PID.TID 0000.0001) // CMAX =         -1.000000000000000E+32
(PID.TID 0000.0001) // CINT =          0.000000000000000E+00
(PID.TID 0000.0001) // SYMBOLS (CMIN->CMAX): -abcdefghijklmnopqrstuvwxyz+
(PID.TID 0000.0001) //                  0.0: .
(PID.TID 0000.0001) // RANGE I (Lo:Hi:Step):(    -3:   196:     1)
(PID.TID 0000.0001) // RANGE J (Lo:Hi:Step):(    36:    -3:    -1)
(PID.TID 0000.0001) // RANGE K (Lo:Hi:Step):(   1:   1:   1)
(PID.TID 0000.0001) // =======================================================
(PID.TID 0000.0001) // =======================================================
(PID.TID 0000.0001) // END OF FIELD                                          =
(PID.TID 0000.0001) // =======================================================
(PID.TID 0000.0001) 
(PID.TID 0000.0001) // =======================================================
(PID.TID 0000.0001) // Field Model Ro_surf (ini_masks_etc)
(PID.TID 0000.0001) // CMIN =          1.000000000000000E+05
(PID.TID 0000.0001) // CMAX =          1.000000000000000E+05
(PID.TID 0000.0001) // CINT =          0.000000000000000E+00
(PID.TID 0000.0001) // SYMBOLS (CMIN->CMAX): -abcdefghijklmnopqrstuvwxyz+
(PID.TID 0000.0001) //                  0.0: .
(PID.TID 0000.0001) // RANGE I (Lo:Hi:Step):(    -3:   196:     1)
(PID.TID 0000.0001) // RANGE J (Lo:Hi:Step):(    36:    -3:    -1)
(PID.TID 0000.0001) // RANGE K (Lo:Hi:Step):(   1:   1:   1)
(PID.TID 0000.0001) // =======================================================
(PID.TID 0000.0001) // =======================================================
(PID.TID 0000.0001) // END OF FIELD                                          =
(PID.TID 0000.0001) // =======================================================
(PID.TID 0000.0001) 
(PID.TID 0000.0001) // =======================================================
(PID.TID 0000.0001) // Field hFacC at iteration          0
(PID.TID 0000.0001) // CMIN =          1.000000000000000E+00
(PID.TID 0000.0001) // CMAX =          1.000000000000000E+00
(PID.TID 0000.0001) // CINT =          0.000000000000000E+00
(PID.TID 0000.0001) // SYMBOLS (CMIN->CMAX): -abcdefghijklmnopqrstuvwxyz+
(PID.TID 0000.0001) //                  0.0: .
(PID.TID 0000.0001) // RANGE I (Lo:Hi:Step):(    -3:   196:     1)
(PID.TID 0000.0001) // RANGE J (Lo:Hi:Step):(    36:    -3:    -1)
(PID.TID 0000.0001) // RANGE K (Lo:Hi:Step):(   1:   1:   1)
(PID.TID 0000.0001) // =======================================================
(PID.TID 0000.0001) // =======================================================
(PID.TID 0000.0001) // END OF FIELD                                          =
(PID.TID 0000.0001) // =======================================================
(PID.TID 0000.0001) 
(PID.TID 0000.0001) // =======================================================
(PID.TID 0000.0001) // Field hFacW at iteration          0
(PID.TID 0000.0001) // CMIN =          1.000000000000000E+00
(PID.TID 0000.0001) // CMAX =          1.000000000000000E+00
(PID.TID 0000.0001) // CINT =          0.000000000000000E+00
(PID.TID 0000.0001) // SYMBOLS (CMIN->CMAX): -abcdefghijklmnopqrstuvwxyz+
(PID.TID 0000.0001) //                  0.0: .
(PID.TID 0000.0001) // RANGE I (Lo:Hi:Step):(    -3:   196:     1)
(PID.TID 0000.0001) // RANGE J (Lo:Hi:Step):(    36:    -3:    -1)
(PID.TID 0000.0001) // RANGE K (Lo:Hi:Step):(   1:   1:   1)
(PID.TID 0000.0001) // =======================================================
(PID.TID 0000.0001) // =======================================================
(PID.TID 0000.0001) // END OF FIELD                                          =
(PID.TID 0000.0001) // =======================================================
(PID.TID 0000.0001) 
(PID.TID 0000.0001) // =======================================================
(PID.TID 0000.0001) // Field hFacS at iteration          0
(PID.TID 0000.0001) // CMIN =          1.000000000000000E+00
(PID.TID 0000.0001) // CMAX =          1.000000000000000E+00
(PID.TID 0000.0001) // CINT =          0.000000000000000E+00
(PID.TID 0000.0001) // SYMBOLS (CMIN->CMAX): -abcdefghijklmnopqrstuvwxyz+
(PID.TID 0000.0001) //                  0.0: .
(PID.TID 0000.0001) // RANGE I (Lo:Hi:Step):(    -3:   196:     1)
(PID.TID 0000.0001) // RANGE J (Lo:Hi:Step):(    36:    -3:    -1)
(PID.TID 0000.0001) // RANGE K (Lo:Hi:Step):(   1:   1:   1)
(PID.TID 0000.0001) // =======================================================
(PID.TID 0000.0001) // =======================================================
(PID.TID 0000.0001) // END OF FIELD                                          =
(PID.TID 0000.0001) // =======================================================
(PID.TID 0000.0001) 
(PID.TID 0000.0001) GAD_INIT_FIXED: GAD_OlMinSize=  2  0  2
(PID.TID 0000.0001) 
(PID.TID 0000.0001) // ===================================
(PID.TID 0000.0001) // GAD parameters :
(PID.TID 0000.0001) // ===================================
(PID.TID 0000.0001) tempAdvScheme =   /* Temp. Horiz.Advection scheme selector */
(PID.TID 0000.0001)                       2
(PID.TID 0000.0001)     ;
(PID.TID 0000.0001) tempVertAdvScheme =   /* Temp. Vert. Advection scheme selector */
(PID.TID 0000.0001)                       2
(PID.TID 0000.0001)     ;
(PID.TID 0000.0001) tempMultiDimAdvec =   /* use Muti-Dim Advec method for Temp */
(PID.TID 0000.0001)                   F
(PID.TID 0000.0001)     ;
(PID.TID 0000.0001) tempSOM_Advection = /* use 2nd Order Moment Advection for Temp */
(PID.TID 0000.0001)                   F
(PID.TID 0000.0001)     ;
(PID.TID 0000.0001) AdamsBashforthGt = /* apply Adams-Bashforth extrapolation on Gt */
(PID.TID 0000.0001)                   T
(PID.TID 0000.0001)     ;
(PID.TID 0000.0001) AdamsBashforth_T = /* apply Adams-Bashforth extrapolation on Temp */
(PID.TID 0000.0001)                   F
(PID.TID 0000.0001)     ;
(PID.TID 0000.0001) saltAdvScheme =   /* Salt. Horiz.advection scheme selector */
(PID.TID 0000.0001)                      77
(PID.TID 0000.0001)     ;
(PID.TID 0000.0001) saltVertAdvScheme =   /* Salt. Vert. Advection scheme selector */
(PID.TID 0000.0001)                      77
(PID.TID 0000.0001)     ;
(PID.TID 0000.0001) saltMultiDimAdvec =   /* use Muti-Dim Advec method for Salt */
(PID.TID 0000.0001)                   T
(PID.TID 0000.0001)     ;
(PID.TID 0000.0001) saltSOM_Advection = /* use 2nd Order Moment Advection for Salt */
(PID.TID 0000.0001)                   F
(PID.TID 0000.0001)     ;
(PID.TID 0000.0001) AdamsBashforthGs = /* apply Adams-Bashforth extrapolation on Gs */
(PID.TID 0000.0001)                   F
(PID.TID 0000.0001)     ;
(PID.TID 0000.0001) AdamsBashforth_S = /* apply Adams-Bashforth extrapolation on Salt */
(PID.TID 0000.0001)                   F
(PID.TID 0000.0001)     ;
(PID.TID 0000.0001) // ===================================
(PID.TID 0000.0001) ATM_PHYS_INIT_FIXED: opening data.atm_gray
(PID.TID 0000.0001)  OPEN_COPY_DATA_FILE: opening file data.atm_gray
(PID.TID 0000.0001) // =======================================================
(PID.TID 0000.0001) // Parameter file "data.atm_gray"
(PID.TID 0000.0001) // =======================================================
(PID.TID 0000.0001) >
(PID.TID 0000.0001) > &atmosphere_nml
(PID.TID 0000.0001) >    turb = .TRUE.,
(PID.TID 0000.0001) >    ldry_convection = .false.,
(PID.TID 0000.0001) >    lwet_convection = .TRUE.,
(PID.TID 0000.0001) >    do_virtual = .false.,
(PID.TID 0000.0001) >    two_stream = .true.,
(PID.TID 0000.0001) >    mixed_layer_bc = .false.,
(PID.TID 0000.0001) >    roughness_heat = 0.05,
(PID.TID 0000.0001) >    roughness_moist = 0.05,
(PID.TID 0000.0001) >    roughness_mom = 0.05,
(PID.TID 0000.0001) > /
(PID.TID 0000.0001) >
(PID.TID 0000.0001) > &radiation_nml
(PID.TID 0000.0001) ># solar_constant= 1365.,
(PID.TID 0000.0001) ># del_sol=1.,
(PID.TID 0000.0001) ># ir_tau_eq=
(PID.TID 0000.0001) ># ir_tau_pole=
(PID.TID 0000.0001) ># atm_abs = 0.,
(PID.TID 0000.0001) ># sw_diff=
(PID.TID 0000.0001) ># linear_tau=
(PID.TID 0000.0001) ># del_sw=
(PID.TID 0000.0001) ># albedo_value=0.38,
(PID.TID 0000.0001) ># window=
(PID.TID 0000.0001) ># select_incSW = 1,
(PID.TID 0000.0001) >  albedo_value=0.4,
(PID.TID 0000.0001) >  solar_exponent=0.,
(PID.TID 0000.0001) >  wv_exponent = -1.,
(PID.TID 0000.0001) >  ozone_in_SW = 1,
(PID.TID 0000.0001) >  two_stream_SW = 1,
(PID.TID 0000.0001) > /
(PID.TID 0000.0001) >
(PID.TID 0000.0001) > &lscale_cond_nml
(PID.TID 0000.0001) ># hc =
(PID.TID 0000.0001) ># do_evap=
(PID.TID 0000.0001) > /
(PID.TID 0000.0001) >
(PID.TID 0000.0001) > &dargan_bettsmiller_nml
(PID.TID 0000.0001) >#-- default:
(PID.TID 0000.0001) >#   tau_bm = 7200.,
(PID.TID 0000.0001) >#   rhbm   = 0.8,
(PID.TID 0000.0001) >#   do_virtual   = .FALSE.,
(PID.TID 0000.0001) >#   do_shallower = .FALSE.,
(PID.TID 0000.0001) >#   do_changeqref= .FALSE.,
(PID.TID 0000.0001) >#   do_envsat    = .FALSE.,
(PID.TID 0000.0001) >#   do_taucape   = .FALSE.,
(PID.TID 0000.0001) >#     capetaubm  = 900.,
(PID.TID 0000.0001) >#     tau_min    = 2400.,
(PID.TID 0000.0001) >#   do_bm_shift  = .FALSE.,
(PID.TID 0000.0001) >#-- POG choice:
(PID.TID 0000.0001) >#  rhbm = 0.7,
(PID.TID 0000.0001) >   do_virtual= .TRUE.,
(PID.TID 0000.0001) >   do_shallower= .TRUE.,
(PID.TID 0000.0001) > /
(PID.TID 0000.0001) >
(PID.TID 0000.0001) > &surface_flux_nml
(PID.TID 0000.0001) > /
(PID.TID 0000.0001) >
(PID.TID 0000.0001) > &vert_turb_driver_nml
(PID.TID 0000.0001) >#  do_shallow_conv, do_mellor_yamada,
(PID.TID 0000.0001) >#  gust_scheme, constant_gust, use_tau,
(PID.TID 0000.0001) >#  do_molecular_diffusion
(PID.TID 0000.0001) >  do_mellor_yamada=.FALSE.,
(PID.TID 0000.0001) > /
(PID.TID 0000.0001) >
(PID.TID 0000.0001) > &diffusivity_nml
(PID.TID 0000.0001) >#  fixed_depth, depth_0, frac_inner,
(PID.TID 0000.0001) >#  rich_crit_pbl, entr_ratio, parcel_buoy,
(PID.TID 0000.0001) >#  znom, free_atm_diff, free_atm_skyhi_diff,
(PID.TID 0000.0001) >#  pbl_mcm, rich_crit_diff, mix_len, rich_prandtl,
(PID.TID 0000.0001) >#  background_m, background_t, ampns, ampns_max,
(PID.TID 0000.0001) >#  do_virtual_non_mcm
(PID.TID 0000.0001) > /
(PID.TID 0000.0001) >
(PID.TID 0000.0001) > &monin_obukhov_nml
(PID.TID 0000.0001) > /
(PID.TID 0000.0001) >
(PID.TID 0000.0001) > &my25_turb_nml
(PID.TID 0000.0001) > /
(PID.TID 0000.0001) >
(PID.TID 0000.0001) > &shallow_conv_nml
(PID.TID 0000.0001) > /
(PID.TID 0000.0001) >
(PID.TID 0000.0001) > &mixed_layer_nml
(PID.TID 0000.0001) ># evaporation, qflux_amp, depth, qflux_width
(PID.TID 0000.0001) >  depth=50.,
(PID.TID 0000.0001) > /
(PID.TID 0000.0001) >
(PID.TID 0000.0001) 
(PID.TID 0000.0001) ATM_PHYS_INIT_FIXED: finished reading data.atm_gray
(PID.TID 0000.0001) MIXED_LAYER_INIT: opening data.atm_gray
(PID.TID 0000.0001)  OPEN_COPY_DATA_FILE: opening file data.atm_gray
(PID.TID 0000.0001) // =======================================================
(PID.TID 0000.0001) // Parameter file "data.atm_gray"
(PID.TID 0000.0001) // =======================================================
(PID.TID 0000.0001) >
(PID.TID 0000.0001) > &atmosphere_nml
(PID.TID 0000.0001) >    turb = .TRUE.,
(PID.TID 0000.0001) >    ldry_convection = .false.,
(PID.TID 0000.0001) >    lwet_convection = .TRUE.,
(PID.TID 0000.0001) >    do_virtual = .false.,
(PID.TID 0000.0001) >    two_stream = .true.,
(PID.TID 0000.0001) >    mixed_layer_bc = .false.,
(PID.TID 0000.0001) >    roughness_heat = 0.05,
(PID.TID 0000.0001) >    roughness_moist = 0.05,
(PID.TID 0000.0001) >    roughness_mom = 0.05,
(PID.TID 0000.0001) > /
(PID.TID 0000.0001) >
(PID.TID 0000.0001) > &radiation_nml
(PID.TID 0000.0001) ># solar_constant= 1365.,
(PID.TID 0000.0001) ># del_sol=1.,
(PID.TID 0000.0001) ># ir_tau_eq=
(PID.TID 0000.0001) ># ir_tau_pole=
(PID.TID 0000.0001) ># atm_abs = 0.,
(PID.TID 0000.0001) ># sw_diff=
(PID.TID 0000.0001) ># linear_tau=
(PID.TID 0000.0001) ># del_sw=
(PID.TID 0000.0001) ># albedo_value=0.38,
(PID.TID 0000.0001) ># window=
(PID.TID 0000.0001) ># select_incSW = 1,
(PID.TID 0000.0001) >  albedo_value=0.4,
(PID.TID 0000.0001) >  solar_exponent=0.,
(PID.TID 0000.0001) >  wv_exponent = -1.,
(PID.TID 0000.0001) >  ozone_in_SW = 1,
(PID.TID 0000.0001) >  two_stream_SW = 1,
(PID.TID 0000.0001) > /
(PID.TID 0000.0001) >
(PID.TID 0000.0001) > &lscale_cond_nml
(PID.TID 0000.0001) ># hc =
(PID.TID 0000.0001) ># do_evap=
(PID.TID 0000.0001) > /
(PID.TID 0000.0001) >
(PID.TID 0000.0001) > &dargan_bettsmiller_nml
(PID.TID 0000.0001) >#-- default:
(PID.TID 0000.0001) >#   tau_bm = 7200.,
(PID.TID 0000.0001) >#   rhbm   = 0.8,
(PID.TID 0000.0001) >#   do_virtual   = .FALSE.,
(PID.TID 0000.0001) >#   do_shallower = .FALSE.,
(PID.TID 0000.0001) >#   do_changeqref= .FALSE.,
(PID.TID 0000.0001) >#   do_envsat    = .FALSE.,
(PID.TID 0000.0001) >#   do_taucape   = .FALSE.,
(PID.TID 0000.0001) >#     capetaubm  = 900.,
(PID.TID 0000.0001) >#     tau_min    = 2400.,
(PID.TID 0000.0001) >#   do_bm_shift  = .FALSE.,
(PID.TID 0000.0001) >#-- POG choice:
(PID.TID 0000.0001) >#  rhbm = 0.7,
(PID.TID 0000.0001) >   do_virtual= .TRUE.,
(PID.TID 0000.0001) >   do_shallower= .TRUE.,
(PID.TID 0000.0001) > /
(PID.TID 0000.0001) >
(PID.TID 0000.0001) > &surface_flux_nml
(PID.TID 0000.0001) > /
(PID.TID 0000.0001) >
(PID.TID 0000.0001) > &vert_turb_driver_nml
(PID.TID 0000.0001) >#  do_shallow_conv, do_mellor_yamada,
(PID.TID 0000.0001) >#  gust_scheme, constant_gust, use_tau,
(PID.TID 0000.0001) >#  do_molecular_diffusion
(PID.TID 0000.0001) >  do_mellor_yamada=.FALSE.,
(PID.TID 0000.0001) > /
(PID.TID 0000.0001) >
(PID.TID 0000.0001) > &diffusivity_nml
(PID.TID 0000.0001) >#  fixed_depth, depth_0, frac_inner,
(PID.TID 0000.0001) >#  rich_crit_pbl, entr_ratio, parcel_buoy,
(PID.TID 0000.0001) >#  znom, free_atm_diff, free_atm_skyhi_diff,
(PID.TID 0000.0001) >#  pbl_mcm, rich_crit_diff, mix_len, rich_prandtl,
(PID.TID 0000.0001) >#  background_m, background_t, ampns, ampns_max,
(PID.TID 0000.0001) >#  do_virtual_non_mcm
(PID.TID 0000.0001) > /
(PID.TID 0000.0001) >
(PID.TID 0000.0001) > &monin_obukhov_nml
(PID.TID 0000.0001) > /
(PID.TID 0000.0001) >
(PID.TID 0000.0001) > &my25_turb_nml
(PID.TID 0000.0001) > /
(PID.TID 0000.0001) >
(PID.TID 0000.0001) > &shallow_conv_nml
(PID.TID 0000.0001) > /
(PID.TID 0000.0001) >
(PID.TID 0000.0001) > &mixed_layer_nml
(PID.TID 0000.0001) ># evaporation, qflux_amp, depth, qflux_width
(PID.TID 0000.0001) >  depth=50.,
(PID.TID 0000.0001) > /
(PID.TID 0000.0001) >
(PID.TID 0000.0001) 
(PID.TID 0000.0001) MIXED_LAYER_INIT: finished reading data.atm_gray
(PID.TID 0000.0001) LSCALE_COND_INIT: opening data.atm_gray
(PID.TID 0000.0001)  OPEN_COPY_DATA_FILE: opening file data.atm_gray
(PID.TID 0000.0001) // =======================================================
(PID.TID 0000.0001) // Parameter file "data.atm_gray"
(PID.TID 0000.0001) // =======================================================
(PID.TID 0000.0001) >
(PID.TID 0000.0001) > &atmosphere_nml
(PID.TID 0000.0001) >    turb = .TRUE.,
(PID.TID 0000.0001) >    ldry_convection = .false.,
(PID.TID 0000.0001) >    lwet_convection = .TRUE.,
(PID.TID 0000.0001) >    do_virtual = .false.,
(PID.TID 0000.0001) >    two_stream = .true.,
(PID.TID 0000.0001) >    mixed_layer_bc = .false.,
(PID.TID 0000.0001) >    roughness_heat = 0.05,
(PID.TID 0000.0001) >    roughness_moist = 0.05,
(PID.TID 0000.0001) >    roughness_mom = 0.05,
(PID.TID 0000.0001) > /
(PID.TID 0000.0001) >
(PID.TID 0000.0001) > &radiation_nml
(PID.TID 0000.0001) ># solar_constant= 1365.,
(PID.TID 0000.0001) ># del_sol=1.,
(PID.TID 0000.0001) ># ir_tau_eq=
(PID.TID 0000.0001) ># ir_tau_pole=
(PID.TID 0000.0001) ># atm_abs = 0.,
(PID.TID 0000.0001) ># sw_diff=
(PID.TID 0000.0001) ># linear_tau=
(PID.TID 0000.0001) ># del_sw=
(PID.TID 0000.0001) ># albedo_value=0.38,
(PID.TID 0000.0001) ># window=
(PID.TID 0000.0001) ># select_incSW = 1,
(PID.TID 0000.0001) >  albedo_value=0.4,
(PID.TID 0000.0001) >  solar_exponent=0.,
(PID.TID 0000.0001) >  wv_exponent = -1.,
(PID.TID 0000.0001) >  ozone_in_SW = 1,
(PID.TID 0000.0001) >  two_stream_SW = 1,
(PID.TID 0000.0001) > /
(PID.TID 0000.0001) >
(PID.TID 0000.0001) > &lscale_cond_nml
(PID.TID 0000.0001) ># hc =
(PID.TID 0000.0001) ># do_evap=
(PID.TID 0000.0001) > /
(PID.TID 0000.0001) >
(PID.TID 0000.0001) > &dargan_bettsmiller_nml
(PID.TID 0000.0001) >#-- default:
(PID.TID 0000.0001) >#   tau_bm = 7200.,
(PID.TID 0000.0001) >#   rhbm   = 0.8,
(PID.TID 0000.0001) >#   do_virtual   = .FALSE.,
(PID.TID 0000.0001) >#   do_shallower = .FALSE.,
(PID.TID 0000.0001) >#   do_changeqref= .FALSE.,
(PID.TID 0000.0001) >#   do_envsat    = .FALSE.,
(PID.TID 0000.0001) >#   do_taucape   = .FALSE.,
(PID.TID 0000.0001) >#     capetaubm  = 900.,
(PID.TID 0000.0001) >#     tau_min    = 2400.,
(PID.TID 0000.0001) >#   do_bm_shift  = .FALSE.,
(PID.TID 0000.0001) >#-- POG choice:
(PID.TID 0000.0001) >#  rhbm = 0.7,
(PID.TID 0000.0001) >   do_virtual= .TRUE.,
(PID.TID 0000.0001) >   do_shallower= .TRUE.,
(PID.TID 0000.0001) > /
(PID.TID 0000.0001) >
(PID.TID 0000.0001) > &surface_flux_nml
(PID.TID 0000.0001) > /
(PID.TID 0000.0001) >
(PID.TID 0000.0001) > &vert_turb_driver_nml
(PID.TID 0000.0001) >#  do_shallow_conv, do_mellor_yamada,
(PID.TID 0000.0001) >#  gust_scheme, constant_gust, use_tau,
(PID.TID 0000.0001) >#  do_molecular_diffusion
(PID.TID 0000.0001) >  do_mellor_yamada=.FALSE.,
(PID.TID 0000.0001) > /
(PID.TID 0000.0001) >
(PID.TID 0000.0001) > &diffusivity_nml
(PID.TID 0000.0001) >#  fixed_depth, depth_0, frac_inner,
(PID.TID 0000.0001) >#  rich_crit_pbl, entr_ratio, parcel_buoy,
(PID.TID 0000.0001) >#  znom, free_atm_diff, free_atm_skyhi_diff,
(PID.TID 0000.0001) >#  pbl_mcm, rich_crit_diff, mix_len, rich_prandtl,
(PID.TID 0000.0001) >#  background_m, background_t, ampns, ampns_max,
(PID.TID 0000.0001) >#  do_virtual_non_mcm
(PID.TID 0000.0001) > /
(PID.TID 0000.0001) >
(PID.TID 0000.0001) > &monin_obukhov_nml
(PID.TID 0000.0001) > /
(PID.TID 0000.0001) >
(PID.TID 0000.0001) > &my25_turb_nml
(PID.TID 0000.0001) > /
(PID.TID 0000.0001) >
(PID.TID 0000.0001) > &shallow_conv_nml
(PID.TID 0000.0001) > /
(PID.TID 0000.0001) >
(PID.TID 0000.0001) > &mixed_layer_nml
(PID.TID 0000.0001) ># evaporation, qflux_amp, depth, qflux_width
(PID.TID 0000.0001) >  depth=50.,
(PID.TID 0000.0001) > /
(PID.TID 0000.0001) >
(PID.TID 0000.0001) 
(PID.TID 0000.0001) LSCALE_COND_INIT: finished reading data.atm_gray
(PID.TID 0000.0001) DARGAN_BETTSMILLER_init: opening data.atm_gray
(PID.TID 0000.0001)  OPEN_COPY_DATA_FILE: opening file data.atm_gray
(PID.TID 0000.0001) // =======================================================
(PID.TID 0000.0001) // Parameter file "data.atm_gray"
(PID.TID 0000.0001) // =======================================================
(PID.TID 0000.0001) >
(PID.TID 0000.0001) > &atmosphere_nml
(PID.TID 0000.0001) >    turb = .TRUE.,
(PID.TID 0000.0001) >    ldry_convection = .false.,
(PID.TID 0000.0001) >    lwet_convection = .TRUE.,
(PID.TID 0000.0001) >    do_virtual = .false.,
(PID.TID 0000.0001) >    two_stream = .true.,
(PID.TID 0000.0001) >    mixed_layer_bc = .false.,
(PID.TID 0000.0001) >    roughness_heat = 0.05,
(PID.TID 0000.0001) >    roughness_moist = 0.05,
(PID.TID 0000.0001) >    roughness_mom = 0.05,
(PID.TID 0000.0001) > /
(PID.TID 0000.0001) >
(PID.TID 0000.0001) > &radiation_nml
(PID.TID 0000.0001) ># solar_constant= 1365.,
(PID.TID 0000.0001) ># del_sol=1.,
(PID.TID 0000.0001) ># ir_tau_eq=
(PID.TID 0000.0001) ># ir_tau_pole=
(PID.TID 0000.0001) ># atm_abs = 0.,
(PID.TID 0000.0001) ># sw_diff=
(PID.TID 0000.0001) ># linear_tau=
(PID.TID 0000.0001) ># del_sw=
(PID.TID 0000.0001) ># albedo_value=0.38,
(PID.TID 0000.0001) ># window=
(PID.TID 0000.0001) ># select_incSW = 1,
(PID.TID 0000.0001) >  albedo_value=0.4,
(PID.TID 0000.0001) >  solar_exponent=0.,
(PID.TID 0000.0001) >  wv_exponent = -1.,
(PID.TID 0000.0001) >  ozone_in_SW = 1,
(PID.TID 0000.0001) >  two_stream_SW = 1,
(PID.TID 0000.0001) > /
(PID.TID 0000.0001) >
(PID.TID 0000.0001) > &lscale_cond_nml
(PID.TID 0000.0001) ># hc =
(PID.TID 0000.0001) ># do_evap=
(PID.TID 0000.0001) > /
(PID.TID 0000.0001) >
(PID.TID 0000.0001) > &dargan_bettsmiller_nml
(PID.TID 0000.0001) >#-- default:
(PID.TID 0000.0001) >#   tau_bm = 7200.,
(PID.TID 0000.0001) >#   rhbm   = 0.8,
(PID.TID 0000.0001) >#   do_virtual   = .FALSE.,
(PID.TID 0000.0001) >#   do_shallower = .FALSE.,
(PID.TID 0000.0001) >#   do_changeqref= .FALSE.,
(PID.TID 0000.0001) >#   do_envsat    = .FALSE.,
(PID.TID 0000.0001) >#   do_taucape   = .FALSE.,
(PID.TID 0000.0001) >#     capetaubm  = 900.,
(PID.TID 0000.0001) >#     tau_min    = 2400.,
(PID.TID 0000.0001) >#   do_bm_shift  = .FALSE.,
(PID.TID 0000.0001) >#-- POG choice:
(PID.TID 0000.0001) >#  rhbm = 0.7,
(PID.TID 0000.0001) >   do_virtual= .TRUE.,
(PID.TID 0000.0001) >   do_shallower= .TRUE.,
(PID.TID 0000.0001) > /
(PID.TID 0000.0001) >
(PID.TID 0000.0001) > &surface_flux_nml
(PID.TID 0000.0001) > /
(PID.TID 0000.0001) >
(PID.TID 0000.0001) > &vert_turb_driver_nml
(PID.TID 0000.0001) >#  do_shallow_conv, do_mellor_yamada,
(PID.TID 0000.0001) >#  gust_scheme, constant_gust, use_tau,
(PID.TID 0000.0001) >#  do_molecular_diffusion
(PID.TID 0000.0001) >  do_mellor_yamada=.FALSE.,
(PID.TID 0000.0001) > /
(PID.TID 0000.0001) >
(PID.TID 0000.0001) > &diffusivity_nml
(PID.TID 0000.0001) >#  fixed_depth, depth_0, frac_inner,
(PID.TID 0000.0001) >#  rich_crit_pbl, entr_ratio, parcel_buoy,
(PID.TID 0000.0001) >#  znom, free_atm_diff, free_atm_skyhi_diff,
(PID.TID 0000.0001) >#  pbl_mcm, rich_crit_diff, mix_len, rich_prandtl,
(PID.TID 0000.0001) >#  background_m, background_t, ampns, ampns_max,
(PID.TID 0000.0001) >#  do_virtual_non_mcm
(PID.TID 0000.0001) > /
(PID.TID 0000.0001) >
(PID.TID 0000.0001) > &monin_obukhov_nml
(PID.TID 0000.0001) > /
(PID.TID 0000.0001) >
(PID.TID 0000.0001) > &my25_turb_nml
(PID.TID 0000.0001) > /
(PID.TID 0000.0001) >
(PID.TID 0000.0001) > &shallow_conv_nml
(PID.TID 0000.0001) > /
(PID.TID 0000.0001) >
(PID.TID 0000.0001) > &mixed_layer_nml
(PID.TID 0000.0001) ># evaporation, qflux_amp, depth, qflux_width
(PID.TID 0000.0001) >  depth=50.,
(PID.TID 0000.0001) > /
(PID.TID 0000.0001) >
(PID.TID 0000.0001) 
(PID.TID 0000.0001) DARGAB_BETTSMILLER_INIT: finished reading data.atm_gray
(PID.TID 0000.0001) RADIATION_INIT: opening data.atm_gray
(PID.TID 0000.0001)  OPEN_COPY_DATA_FILE: opening file data.atm_gray
(PID.TID 0000.0001) // =======================================================
(PID.TID 0000.0001) // Parameter file "data.atm_gray"
(PID.TID 0000.0001) // =======================================================
(PID.TID 0000.0001) >
(PID.TID 0000.0001) > &atmosphere_nml
(PID.TID 0000.0001) >    turb = .TRUE.,
(PID.TID 0000.0001) >    ldry_convection = .false.,
(PID.TID 0000.0001) >    lwet_convection = .TRUE.,
(PID.TID 0000.0001) >    do_virtual = .false.,
(PID.TID 0000.0001) >    two_stream = .true.,
(PID.TID 0000.0001) >    mixed_layer_bc = .false.,
(PID.TID 0000.0001) >    roughness_heat = 0.05,
(PID.TID 0000.0001) >    roughness_moist = 0.05,
(PID.TID 0000.0001) >    roughness_mom = 0.05,
(PID.TID 0000.0001) > /
(PID.TID 0000.0001) >
(PID.TID 0000.0001) > &radiation_nml
(PID.TID 0000.0001) ># solar_constant= 1365.,
(PID.TID 0000.0001) ># del_sol=1.,
(PID.TID 0000.0001) ># ir_tau_eq=
(PID.TID 0000.0001) ># ir_tau_pole=
(PID.TID 0000.0001) ># atm_abs = 0.,
(PID.TID 0000.0001) ># sw_diff=
(PID.TID 0000.0001) ># linear_tau=
(PID.TID 0000.0001) ># del_sw=
(PID.TID 0000.0001) ># albedo_value=0.38,
(PID.TID 0000.0001) ># window=
(PID.TID 0000.0001) ># select_incSW = 1,
(PID.TID 0000.0001) >  albedo_value=0.4,
(PID.TID 0000.0001) >  solar_exponent=0.,
(PID.TID 0000.0001) >  wv_exponent = -1.,
(PID.TID 0000.0001) >  ozone_in_SW = 1,
(PID.TID 0000.0001) >  two_stream_SW = 1,
(PID.TID 0000.0001) > /
(PID.TID 0000.0001) >
(PID.TID 0000.0001) > &lscale_cond_nml
(PID.TID 0000.0001) ># hc =
(PID.TID 0000.0001) ># do_evap=
(PID.TID 0000.0001) > /
(PID.TID 0000.0001) >
(PID.TID 0000.0001) > &dargan_bettsmiller_nml
(PID.TID 0000.0001) >#-- default:
(PID.TID 0000.0001) >#   tau_bm = 7200.,
(PID.TID 0000.0001) >#   rhbm   = 0.8,
(PID.TID 0000.0001) >#   do_virtual   = .FALSE.,
(PID.TID 0000.0001) >#   do_shallower = .FALSE.,
(PID.TID 0000.0001) >#   do_changeqref= .FALSE.,
(PID.TID 0000.0001) >#   do_envsat    = .FALSE.,
(PID.TID 0000.0001) >#   do_taucape   = .FALSE.,
(PID.TID 0000.0001) >#     capetaubm  = 900.,
(PID.TID 0000.0001) >#     tau_min    = 2400.,
(PID.TID 0000.0001) >#   do_bm_shift  = .FALSE.,
(PID.TID 0000.0001) >#-- POG choice:
(PID.TID 0000.0001) >#  rhbm = 0.7,
(PID.TID 0000.0001) >   do_virtual= .TRUE.,
(PID.TID 0000.0001) >   do_shallower= .TRUE.,
(PID.TID 0000.0001) > /
(PID.TID 0000.0001) >
(PID.TID 0000.0001) > &surface_flux_nml
(PID.TID 0000.0001) > /
(PID.TID 0000.0001) >
(PID.TID 0000.0001) > &vert_turb_driver_nml
(PID.TID 0000.0001) >#  do_shallow_conv, do_mellor_yamada,
(PID.TID 0000.0001) >#  gust_scheme, constant_gust, use_tau,
(PID.TID 0000.0001) >#  do_molecular_diffusion
(PID.TID 0000.0001) >  do_mellor_yamada=.FALSE.,
(PID.TID 0000.0001) > /
(PID.TID 0000.0001) >
(PID.TID 0000.0001) > &diffusivity_nml
(PID.TID 0000.0001) >#  fixed_depth, depth_0, frac_inner,
(PID.TID 0000.0001) >#  rich_crit_pbl, entr_ratio, parcel_buoy,
(PID.TID 0000.0001) >#  znom, free_atm_diff, free_atm_skyhi_diff,
(PID.TID 0000.0001) >#  pbl_mcm, rich_crit_diff, mix_len, rich_prandtl,
(PID.TID 0000.0001) >#  background_m, background_t, ampns, ampns_max,
(PID.TID 0000.0001) >#  do_virtual_non_mcm
(PID.TID 0000.0001) > /
(PID.TID 0000.0001) >
(PID.TID 0000.0001) > &monin_obukhov_nml
(PID.TID 0000.0001) > /
(PID.TID 0000.0001) >
(PID.TID 0000.0001) > &my25_turb_nml
(PID.TID 0000.0001) > /
(PID.TID 0000.0001) >
(PID.TID 0000.0001) > &shallow_conv_nml
(PID.TID 0000.0001) > /
(PID.TID 0000.0001) >
(PID.TID 0000.0001) > &mixed_layer_nml
(PID.TID 0000.0001) ># evaporation, qflux_amp, depth, qflux_width
(PID.TID 0000.0001) >  depth=50.,
(PID.TID 0000.0001) > /
(PID.TID 0000.0001) >
(PID.TID 0000.0001) 
(PID.TID 0000.0001) RADIATION_INIT: finished reading data.atm_gray
(PID.TID 0000.0001) VERT_TURB_DRIVER_INIT: opening data.atm_gray
(PID.TID 0000.0001)  OPEN_COPY_DATA_FILE: opening file data.atm_gray
(PID.TID 0000.0001) // =======================================================
(PID.TID 0000.0001) // Parameter file "data.atm_gray"
(PID.TID 0000.0001) // =======================================================
(PID.TID 0000.0001) >
(PID.TID 0000.0001) > &atmosphere_nml
(PID.TID 0000.0001) >    turb = .TRUE.,
(PID.TID 0000.0001) >    ldry_convection = .false.,
(PID.TID 0000.0001) >    lwet_convection = .TRUE.,
(PID.TID 0000.0001) >    do_virtual = .false.,
(PID.TID 0000.0001) >    two_stream = .true.,
(PID.TID 0000.0001) >    mixed_layer_bc = .false.,
(PID.TID 0000.0001) >    roughness_heat = 0.05,
(PID.TID 0000.0001) >    roughness_moist = 0.05,
(PID.TID 0000.0001) >    roughness_mom = 0.05,
(PID.TID 0000.0001) > /
(PID.TID 0000.0001) >
(PID.TID 0000.0001) > &radiation_nml
(PID.TID 0000.0001) ># solar_constant= 1365.,
(PID.TID 0000.0001) ># del_sol=1.,
(PID.TID 0000.0001) ># ir_tau_eq=
(PID.TID 0000.0001) ># ir_tau_pole=
(PID.TID 0000.0001) ># atm_abs = 0.,
(PID.TID 0000.0001) ># sw_diff=
(PID.TID 0000.0001) ># linear_tau=
(PID.TID 0000.0001) ># del_sw=
(PID.TID 0000.0001) ># albedo_value=0.38,
(PID.TID 0000.0001) ># window=
(PID.TID 0000.0001) ># select_incSW = 1,
(PID.TID 0000.0001) >  albedo_value=0.4,
(PID.TID 0000.0001) >  solar_exponent=0.,
(PID.TID 0000.0001) >  wv_exponent = -1.,
(PID.TID 0000.0001) >  ozone_in_SW = 1,
(PID.TID 0000.0001) >  two_stream_SW = 1,
(PID.TID 0000.0001) > /
(PID.TID 0000.0001) >
(PID.TID 0000.0001) > &lscale_cond_nml
(PID.TID 0000.0001) ># hc =
(PID.TID 0000.0001) ># do_evap=
(PID.TID 0000.0001) > /
(PID.TID 0000.0001) >
(PID.TID 0000.0001) > &dargan_bettsmiller_nml
(PID.TID 0000.0001) >#-- default:
(PID.TID 0000.0001) >#   tau_bm = 7200.,
(PID.TID 0000.0001) >#   rhbm   = 0.8,
(PID.TID 0000.0001) >#   do_virtual   = .FALSE.,
(PID.TID 0000.0001) >#   do_shallower = .FALSE.,
(PID.TID 0000.0001) >#   do_changeqref= .FALSE.,
(PID.TID 0000.0001) >#   do_envsat    = .FALSE.,
(PID.TID 0000.0001) >#   do_taucape   = .FALSE.,
(PID.TID 0000.0001) >#     capetaubm  = 900.,
(PID.TID 0000.0001) >#     tau_min    = 2400.,
(PID.TID 0000.0001) >#   do_bm_shift  = .FALSE.,
(PID.TID 0000.0001) >#-- POG choice:
(PID.TID 0000.0001) >#  rhbm = 0.7,
(PID.TID 0000.0001) >   do_virtual= .TRUE.,
(PID.TID 0000.0001) >   do_shallower= .TRUE.,
(PID.TID 0000.0001) > /
(PID.TID 0000.0001) >
(PID.TID 0000.0001) > &surface_flux_nml
(PID.TID 0000.0001) > /
(PID.TID 0000.0001) >
(PID.TID 0000.0001) > &vert_turb_driver_nml
(PID.TID 0000.0001) >#  do_shallow_conv, do_mellor_yamada,
(PID.TID 0000.0001) >#  gust_scheme, constant_gust, use_tau,
(PID.TID 0000.0001) >#  do_molecular_diffusion
(PID.TID 0000.0001) >  do_mellor_yamada=.FALSE.,
(PID.TID 0000.0001) > /
(PID.TID 0000.0001) >
(PID.TID 0000.0001) > &diffusivity_nml
(PID.TID 0000.0001) >#  fixed_depth, depth_0, frac_inner,
(PID.TID 0000.0001) >#  rich_crit_pbl, entr_ratio, parcel_buoy,
(PID.TID 0000.0001) >#  znom, free_atm_diff, free_atm_skyhi_diff,
(PID.TID 0000.0001) >#  pbl_mcm, rich_crit_diff, mix_len, rich_prandtl,
(PID.TID 0000.0001) >#  background_m, background_t, ampns, ampns_max,
(PID.TID 0000.0001) >#  do_virtual_non_mcm
(PID.TID 0000.0001) > /
(PID.TID 0000.0001) >
(PID.TID 0000.0001) > &monin_obukhov_nml
(PID.TID 0000.0001) > /
(PID.TID 0000.0001) >
(PID.TID 0000.0001) > &my25_turb_nml
(PID.TID 0000.0001) > /
(PID.TID 0000.0001) >
(PID.TID 0000.0001) > &shallow_conv_nml
(PID.TID 0000.0001) > /
(PID.TID 0000.0001) >
(PID.TID 0000.0001) > &mixed_layer_nml
(PID.TID 0000.0001) ># evaporation, qflux_amp, depth, qflux_width
(PID.TID 0000.0001) >  depth=50.,
(PID.TID 0000.0001) > /
(PID.TID 0000.0001) >
(PID.TID 0000.0001) 
(PID.TID 0000.0001) VERT_TURB_DRIVER_INIT: finished reading data.atm_gray
(PID.TID 0000.0001)  MDS_READ_FIELD: opening global file: ape_ozone_cs32_40l.bin
(PID.TID 0000.0001) ------------------------------------------------------------
(PID.TID 0000.0001) DIAGNOSTICS_SET_LEVELS: done
(PID.TID 0000.0001)  Total Nb of available Diagnostics: ndiagt=   232
(PID.TID 0000.0001)  write list of available Diagnostics to file: available_diagnostics.log
(PID.TID 0000.0001) SETDIAG: Allocate  1 x  1 Levels for Diagnostic #    23 ETAN
(PID.TID 0000.0001) SETDIAG: Allocate  1 x  1 Levels for Diagnostic #    24 ETANSQ
(PID.TID 0000.0001) SETDIAG: Allocate  1 x  1 Levels for Diagnostic #    25 DETADT2
(PID.TID 0000.0001) SETDIAG: Allocate  1 x  1 Levels for Diagnostic #    73 PHI_SURF
(PID.TID 0000.0001) SETDIAG: Allocate  1 x  1 Levels for Diagnostic #   202 AtPhCnvP
(PID.TID 0000.0001) SETDIAG: Allocate  1 x  1 Levels for Diagnostic #   203 AtPhLscP
(PID.TID 0000.0001) SETDIAG: Allocate  1 x  1 Levels for Diagnostic #   221 AtPhCAPE
(PID.TID 0000.0001) SETDIAG: Allocate  1 x  1 Levels for Diagnostic #   217 AtPhSens
(PID.TID 0000.0001) SETDIAG: Allocate  1 x  1 Levels for Diagnostic #   218 AtPhEvap
(PID.TID 0000.0001) SETDIAG: Allocate  1 x  1 Levels for Diagnostic #   219 AtPhTauX
(PID.TID 0000.0001) SETDIAG: Allocate  1 x  1 Levels for Diagnostic #   220 AtPhTauY
(PID.TID 0000.0001) SETDIAG: Allocate  1 x  1 Levels for Diagnostic #   195 AtPh_SST
(PID.TID 0000.0001) SETDIAG: Allocate  1 x  1 Levels for Diagnostic #   211 AtPhNTSR
(PID.TID 0000.0001) SETDIAG: Allocate  1 x  1 Levels for Diagnostic #   212 AtPhOLR
(PID.TID 0000.0001) SETDIAG: Allocate  1 x  1 Levels for Diagnostic #   214 AtPhNSSR
(PID.TID 0000.0001) SETDIAG: Allocate  1 x  1 Levels for Diagnostic #   215 AtPhDSLR
(PID.TID 0000.0001) SETDIAG: Allocate  1 x  1 Levels for Diagnostic #   216 AtPhUSLR
(PID.TID 0000.0001) SETDIAG: Allocate 40 x  1 Levels for Diagnostic #    29 UVEL
(PID.TID 0000.0001) SETDIAG: Allocate 40 x  1 Levels for Diagnostic #    30 VVEL
(PID.TID 0000.0001) SETDIAG: Allocate 40 x  1 Levels for Diagnostic #    31 WVEL
(PID.TID 0000.0001) SETDIAG: Allocate 40 x  1 Levels for Diagnostic #    26 THETA
(PID.TID 0000.0001) SETDIAG: Allocate 40 x  1 Levels for Diagnostic #    27 SALT
(PID.TID 0000.0001) SETDIAG: Allocate 40 x  1 Levels for Diagnostic #    34 UVELSQ
(PID.TID 0000.0001) SETDIAG: Allocate 40 x  1 Levels for Diagnostic #    35 VVELSQ
(PID.TID 0000.0001) SETDIAG: Allocate 40 x  1 Levels for Diagnostic #    36 WVELSQ
(PID.TID 0000.0001) SETDIAG: Allocate 40 x  1 Levels for Diagnostic #    32 THETASQ
(PID.TID 0000.0001) SETDIAG: Allocate 40 x  1 Levels for Diagnostic #    33 SALTSQ
(PID.TID 0000.0001) SETDIAG: Allocate 40 x  1 Levels for Diagnostic #    43 UVELMASS
(PID.TID 0000.0001) SETDIAG: Allocate 40 x  1 Levels for Diagnostic #    44 VVELMASS
(PID.TID 0000.0001) SETDIAG: Allocate 40 x  1 Levels for Diagnostic #    37 UE_VEL_C
(PID.TID 0000.0001) SETDIAG: Allocate 40 x  1 Levels for Diagnostic #    38 VN_VEL_C
(PID.TID 0000.0001) SETDIAG: Allocate 40 x  1 Levels for Diagnostic #    39 UV_VEL_C
(PID.TID 0000.0001) SETDIAG: Allocate 40 x  1 Levels for Diagnostic #    41 WU_VEL
(PID.TID 0000.0001) SETDIAG: Allocate 40 x  1 Levels for Diagnostic #    42 WV_VEL
(PID.TID 0000.0001) SETDIAG: Allocate 40 x  1 Levels for Diagnostic #    54 UVELTH
(PID.TID 0000.0001) SETDIAG: Allocate 40 x  1 Levels for Diagnostic #    55 VVELTH
(PID.TID 0000.0001) SETDIAG: Allocate 40 x  1 Levels for Diagnostic #    56 WVELTH
(PID.TID 0000.0001) SETDIAG: Allocate 40 x  1 Levels for Diagnostic #    28 RELHUM
(PID.TID 0000.0001) SETDIAG: Allocate 40 x  1 Levels for Diagnostic #   196 AtPhdTdt
(PID.TID 0000.0001) SETDIAG: Allocate 40 x  1 Levels for Diagnostic #   197 AtPhdQdt
(PID.TID 0000.0001) SETDIAG: Allocate 40 x  1 Levels for Diagnostic #   198 AtPhdUdt
(PID.TID 0000.0001) SETDIAG: Allocate 40 x  1 Levels for Diagnostic #   199 AtPhdVdt
(PID.TID 0000.0001) SETDIAG: Allocate 40 x  1 Levels for Diagnostic #   232 AtPhDisH
(PID.TID 0000.0001) SETDIAG: Allocate 40 x  1 Levels for Diagnostic #   100 HeatDiss
(PID.TID 0000.0001) SETDIAG: Allocate 40 x  1 Levels for Diagnostic #    99 MoistCor
(PID.TID 0000.0001) SETDIAG: Allocate 40 x  1 Levels for Diagnostic #   194 SHAP_dKE
(PID.TID 0000.0001) SETDIAG: Allocate 40 x  1 Levels for Diagnostic #   205 AtPhdTrd
(PID.TID 0000.0001) SETDIAG: Allocate 40 x  1 Levels for Diagnostic #   204 AtPhdTlc
(PID.TID 0000.0001) SETDIAG: Allocate 40 x  1 Levels for Diagnostic #   229 AtPhdTcv
(PID.TID 0000.0001) SETDIAG: Allocate 41 x  1 Levels for Diagnostic #   206 AtPhNSR
(PID.TID 0000.0001) SETDIAG: Allocate 41 x  1 Levels for Diagnostic #   207 AtPhNLR
(PID.TID 0000.0001) SETDIAG: Allocate 41 x  1 Levels for Diagnostic #   208 AtPhDSR
(PID.TID 0000.0001) SETDIAG: Allocate 41 x  1 Levels for Diagnostic #   209 AtPhDLR
(PID.TID 0000.0001) SETDIAG: Allocate 40 x  1 Levels for Diagnostic #   164 Um_Advec
(PID.TID 0000.0001) SETDIAG: Allocate 40 x  1 Levels for Diagnostic #   165 Vm_Advec
(PID.TID 0000.0001) SETDIAG: Allocate 40 x  1 Levels for Diagnostic #   168 Um_dPHdx
(PID.TID 0000.0001) SETDIAG: Allocate 40 x  1 Levels for Diagnostic #   169 Vm_dPHdy
(PID.TID 0000.0001) SETDIAG: Allocate 40 x  1 Levels for Diagnostic #   170 Um_Ext
(PID.TID 0000.0001) SETDIAG: Allocate 40 x  1 Levels for Diagnostic #   171 Vm_Ext
(PID.TID 0000.0001) SETDIAG: Allocate 40 x  1 Levels for Diagnostic #   192 SHAP_dU
(PID.TID 0000.0001) SETDIAG: Allocate 40 x  1 Levels for Diagnostic #   193 SHAP_dV
(PID.TID 0000.0001) SETDIAG: Allocate 40 x  1 Levels for Diagnostic #   174 Um_AdvRe
(PID.TID 0000.0001) SETDIAG: Allocate 40 x  1 Levels for Diagnostic #   175 Vm_AdvRe
(PID.TID 0000.0001) SETDIAG: Allocate 40 x  1 Levels for Diagnostic #   172 Um_AdvZ3
(PID.TID 0000.0001) SETDIAG: Allocate 40 x  1 Levels for Diagnostic #   173 Vm_AdvZ3
(PID.TID 0000.0001) SETDIAG: Allocate 40 x  1 Levels for Diagnostic #   107 AB_gU
(PID.TID 0000.0001) SETDIAG: Allocate 40 x  1 Levels for Diagnostic #   108 AB_gV
(PID.TID 0000.0001) SETDIAG: Allocate 40 x  1 Levels for Diagnostic #   198 AtPhdUdt
(PID.TID 0000.0001) SETDIAG: Allocate 40 x  1 Levels for Diagnostic #   199 AtPhdVdt
(PID.TID 0000.0001) SETDIAG: Allocate 40 x  1 Levels for Diagnostic #   166 Um_Cori
(PID.TID 0000.0001) SETDIAG: Allocate 40 x  1 Levels for Diagnostic #   167 Vm_Cori
(PID.TID 0000.0001)   space allocated for all diagnostics:    2181 levels
(PID.TID 0000.0001)   set mate pointer for diag #   219  AtPhTauX , Parms: UM      L1 , mate:   220
(PID.TID 0000.0001)   set mate pointer for diag #   220  AtPhTauY , Parms: VM      L1 , mate:   219
(PID.TID 0000.0001)   set mate pointer for diag #    29  UVEL     , Parms: UUR     MR , mate:    30
(PID.TID 0000.0001)   set mate pointer for diag #    30  VVEL     , Parms: VVR     MR , mate:    29
(PID.TID 0000.0001)   set mate pointer for diag #    34  UVELSQ   , Parms: UURP    MR , mate:    35
(PID.TID 0000.0001)   set mate pointer for diag #    35  VVELSQ   , Parms: VVRP    MR , mate:    34
(PID.TID 0000.0001)   set mate pointer for diag #    43  UVELMASS , Parms: UUr     MR , mate:    44
(PID.TID 0000.0001)   set mate pointer for diag #    44  VVELMASS , Parms: VVr     MR , mate:    43
(PID.TID 0000.0001)   set mate pointer for diag #    37  UE_VEL_C , Parms: UMR     MR , mate:    38
(PID.TID 0000.0001)   set mate pointer for diag #    38  VN_VEL_C , Parms: VMR     MR , mate:    37
(PID.TID 0000.0001)   set mate pointer for diag #    39  UV_VEL_C , Parms: UMR     MR , mate:    39
(PID.TID 0000.0001)   set mate pointer for diag #    54  UVELTH   , Parms: UUR     MR , mate:    55
(PID.TID 0000.0001)   set mate pointer for diag #    55  VVELTH   , Parms: VVR     MR , mate:    54
(PID.TID 0000.0001)   set mate pointer for diag #   198  AtPhdUdt , Parms: UMR     MR , mate:   199
(PID.TID 0000.0001)   set mate pointer for diag #   199  AtPhdVdt , Parms: VMR     MR , mate:   198
(PID.TID 0000.0001)   set mate pointer for diag #   164  Um_Advec , Parms: UUR     MR , mate:   165
(PID.TID 0000.0001)   set mate pointer for diag #   165  Vm_Advec , Parms: VVR     MR , mate:   164
(PID.TID 0000.0001)   set mate pointer for diag #   168  Um_dPHdx , Parms: UUR     MR , mate:   169
(PID.TID 0000.0001)   set mate pointer for diag #   169  Vm_dPHdy , Parms: VVR     MR , mate:   168
(PID.TID 0000.0001)   set mate pointer for diag #   170  Um_Ext   , Parms: UUR     MR , mate:   171
(PID.TID 0000.0001)   set mate pointer for diag #   171  Vm_Ext   , Parms: VVR     MR , mate:   170
(PID.TID 0000.0001)   set mate pointer for diag #   192  SHAP_dU  , Parms: UUR     MR , mate:   193
(PID.TID 0000.0001)   set mate pointer for diag #   193  SHAP_dV  , Parms: VVR     MR , mate:   192
(PID.TID 0000.0001)   set mate pointer for diag #   174  Um_AdvRe , Parms: UUR     MR , mate:   175
(PID.TID 0000.0001)   set mate pointer for diag #   175  Vm_AdvRe , Parms: VVR     MR , mate:   174
(PID.TID 0000.0001)   set mate pointer for diag #   172  Um_AdvZ3 , Parms: UUR     MR , mate:   173
(PID.TID 0000.0001)   set mate pointer for diag #   173  Vm_AdvZ3 , Parms: VVR     MR , mate:   172
(PID.TID 0000.0001)   set mate pointer for diag #   107  AB_gU    , Parms: UUR     MR , mate:   108
(PID.TID 0000.0001)   set mate pointer for diag #   108  AB_gV    , Parms: VVR     MR , mate:   107
(PID.TID 0000.0001)   set mate pointer for diag #   198  AtPhdUdt , Parms: UMR     MR , mate:   199
(PID.TID 0000.0001)   set mate pointer for diag #   199  AtPhdVdt , Parms: VMR     MR , mate:   198
(PID.TID 0000.0001)   set mate pointer for diag #   166  Um_Cori  , Parms: UUR     MR , mate:   167
(PID.TID 0000.0001)   set mate pointer for diag #   167  Vm_Cori  , Parms: VVR     MR , mate:   166
(PID.TID 0000.0001) DIAGNOSTICS_SET_POINTERS: Set levels for Outp.Stream: surfDiag
(PID.TID 0000.0001)  Levels:       1.
(PID.TID 0000.0001) DIAGNOSTICS_SET_POINTERS: Set levels for Outp.Stream: dynDiag
(PID.TID 0000.0001)  Levels:       1.   2.   3.   4.   5.   6.   7.   8.   9.  10.  11.  12.  13.  14.  15.  16.  17.  18.  19.  20.
(PID.TID 0000.0001)  Levels:      21.  22.  23.  24.  25.  26.  27.  28.  29.  30.  31.  32.  33.  34.  35.  36.  37.  38.  39.  40.
(PID.TID 0000.0001) DIAGNOSTICS_SET_POINTERS: Set levels for Outp.Stream: physDiag
(PID.TID 0000.0001)  Levels:       1.   2.   3.   4.   5.   6.   7.   8.   9.  10.  11.  12.  13.  14.  15.  16.  17.  18.  19.  20.
(PID.TID 0000.0001)  Levels:      21.  22.  23.  24.  25.  26.  27.  28.  29.  30.  31.  32.  33.  34.  35.  36.  37.  38.  39.  40.
(PID.TID 0000.0001) DIAGNOSTICS_SET_POINTERS: Set levels for Outp.Stream: radDiag
(PID.TID 0000.0001)  Levels:       1.   2.   3.   4.   5.   6.   7.   8.   9.  10.  11.  12.  13.  14.  15.  16.  17.  18.  19.  20.
(PID.TID 0000.0001)  Levels:      21.  22.  23.  24.  25.  26.  27.  28.  29.  30.  31.  32.  33.  34.  35.  36.  37.  38.  39.  40.
(PID.TID 0000.0001)  Levels:      41.
(PID.TID 0000.0001) DIAGNOSTICS_SET_POINTERS: Set levels for Outp.Stream: momDiag
(PID.TID 0000.0001)  Levels:       1.   2.   3.   4.   5.   6.   7.   8.   9.  10.  11.  12.  13.  14.  15.  16.  17.  18.  19.  20.
(PID.TID 0000.0001)  Levels:      21.  22.  23.  24.  25.  26.  27.  28.  29.  30.  31.  32.  33.  34.  35.  36.  37.  38.  39.  40.
(PID.TID 0000.0001) DIAGNOSTICS_SET_POINTERS: done
(PID.TID 0000.0001) ------------------------------------------------------------
(PID.TID 0000.0001) DIAGSTATS_SET_REGIONS: define no region
(PID.TID 0000.0001) ------------------------------------------------------------
(PID.TID 0000.0001) SETDIAG: Allocate  1 Levels for Stats-Diag #    23 ETAN
(PID.TID 0000.0001) SETDIAG: Allocate 40 Levels for Stats-Diag #    26 THETA
(PID.TID 0000.0001) SETDIAG: Allocate 40 Levels for Stats-Diag #    27 SALT
(PID.TID 0000.0001) SETDIAG: Allocate 40 Levels for Stats-Diag #    28 RELHUM
(PID.TID 0000.0001) SETDIAG: Allocate 40 Levels for Stats-Diag #    37 UE_VEL_C
(PID.TID 0000.0001) SETDIAG: Allocate 40 Levels for Stats-Diag #    38 VN_VEL_C
(PID.TID 0000.0001) SETDIAG: Allocate 40 Levels for Stats-Diag #    31 WVEL
(PID.TID 0000.0001) SETDIAG: Allocate 40 Levels for Stats-Diag #   196 AtPhdTdt
(PID.TID 0000.0001) SETDIAG: Allocate 40 Levels for Stats-Diag #   197 AtPhdQdt
(PID.TID 0000.0001) SETDIAG: Allocate 40 Levels for Stats-Diag #   198 AtPhdUdt
(PID.TID 0000.0001) SETDIAG: Allocate 40 Levels for Stats-Diag #   199 AtPhdVdt
(PID.TID 0000.0001) SETDIAG: Allocate 40 Levels for Stats-Diag #   230 AtPhdtTg
(PID.TID 0000.0001) SETDIAG: Allocate 40 Levels for Stats-Diag #   231 AtPhdtQg
(PID.TID 0000.0001) SETDIAG: Allocate 40 Levels for Stats-Diag #   200 AtPhDifT
(PID.TID 0000.0001) SETDIAG: Allocate 40 Levels for Stats-Diag #   201 AtPhDifM
(PID.TID 0000.0001) SETDIAG: Allocate 40 Levels for Stats-Diag #   232 AtPhDisH
(PID.TID 0000.0001) SETDIAG: Allocate 40 Levels for Stats-Diag #   100 HeatDiss
(PID.TID 0000.0001) SETDIAG: Allocate 40 Levels for Stats-Diag #    99 MoistCor
(PID.TID 0000.0001) SETDIAG: Allocate 40 Levels for Stats-Diag #   194 SHAP_dKE
(PID.TID 0000.0001) SETDIAG: Allocate 40 Levels for Stats-Diag #   205 AtPhdTrd
(PID.TID 0000.0001) SETDIAG: Allocate 40 Levels for Stats-Diag #   204 AtPhdTlc
(PID.TID 0000.0001) SETDIAG: Allocate 40 Levels for Stats-Diag #   229 AtPhdTcv
(PID.TID 0000.0001) SETDIAG: Allocate 41 Levels for Stats-Diag #   206 AtPhNSR
(PID.TID 0000.0001) SETDIAG: Allocate 41 Levels for Stats-Diag #   207 AtPhNLR
(PID.TID 0000.0001) SETDIAG: Allocate 41 Levels for Stats-Diag #   208 AtPhDSR
(PID.TID 0000.0001) SETDIAG: Allocate 41 Levels for Stats-Diag #   209 AtPhDLR
(PID.TID 0000.0001) SETDIAG: Allocate  1 Levels for Stats-Diag #   217 AtPhSens
(PID.TID 0000.0001) SETDIAG: Allocate  1 Levels for Stats-Diag #   218 AtPhEvap
(PID.TID 0000.0001) SETDIAG: Allocate  1 Levels for Stats-Diag #   219 AtPhTauX
(PID.TID 0000.0001) SETDIAG: Allocate  1 Levels for Stats-Diag #   220 AtPhTauY
(PID.TID 0000.0001) SETDIAG: Allocate  1 Levels for Stats-Diag #   202 AtPhCnvP
(PID.TID 0000.0001) SETDIAG: Allocate  1 Levels for Stats-Diag #   203 AtPhLscP
(PID.TID 0000.0001) SETDIAG: Allocate  1 Levels for Stats-Diag #   221 AtPhCAPE
(PID.TID 0000.0001) SETDIAG: Allocate  1 Levels for Stats-Diag #   195 AtPh_SST
(PID.TID 0000.0001) SETDIAG: Allocate  1 Levels for Stats-Diag #   211 AtPhNTSR
(PID.TID 0000.0001) SETDIAG: Allocate  1 Levels for Stats-Diag #   212 AtPhOLR
(PID.TID 0000.0001) SETDIAG: Allocate  1 Levels for Stats-Diag #   214 AtPhNSSR
(PID.TID 0000.0001) SETDIAG: Allocate  1 Levels for Stats-Diag #   215 AtPhDSLR
(PID.TID 0000.0001) SETDIAG: Allocate  1 Levels for Stats-Diag #   216 AtPhUSLR
(PID.TID 0000.0001)   space allocated for all stats-diags:    1018 levels
(PID.TID 0000.0001) DIAGSTATS_SET_POINTERS: done
(PID.TID 0000.0001) ------------------------------------------------------------
(PID.TID 0000.0001) DIAGSTATS_INI_IO: open file: dynStDiag.0000129600.txt , unit=     9
(PID.TID 0000.0001) DIAGSTATS_INI_IO: open file: phyStDiag.0000129600.txt , unit=    10
(PID.TID 0000.0001) DIAGSTATS_INI_IO: open file: flxStDiag.0000129600.txt , unit=    16
(PID.TID 0000.0001) INI_GLOBAL_DOMAIN: Found  24 CS-corner Pts in the domain
(PID.TID 0000.0001) %MON fCori_max                    =   1.4574827780704E-04
(PID.TID 0000.0001) %MON fCori_min                    =  -1.4574827780704E-04
(PID.TID 0000.0001) %MON fCori_mean                   =   0.0000000000000E+00
(PID.TID 0000.0001) %MON fCori_sd                     =   8.4202189509968E-05
(PID.TID 0000.0001) %MON fCoriG_max                   =   1.4584247033981E-04
(PID.TID 0000.0001) %MON fCoriG_min                   =  -1.4584247033981E-04
(PID.TID 0000.0001) %MON fCoriG_mean                  =   2.2587545260115E-21
(PID.TID 0000.0001) %MON fCoriG_sd                    =   8.4202189509968E-05
(PID.TID 0000.0001) %MON fCoriCos_max                 =   1.4580166994612E-04
(PID.TID 0000.0001) %MON fCoriCos_min                 =   5.2407700865903E-06
(PID.TID 0000.0001) %MON fCoriCos_mean                =   1.1514045869113E-04
(PID.TID 0000.0001) %MON fCoriCos_sd                  =   3.0375849106513E-05
(PID.TID 0000.0001) INI_CG2D: CG2D normalisation factor =  9.9119603843467444E-06
(PID.TID 0000.0001) INI_CG2D: cg2dTolerance = 2.105730772982101E-10 (Area=5.0986421043E+14)
(PID.TID 0000.0001) 
(PID.TID 0000.0001) // =======================================================
(PID.TID 0000.0001) // Model configuration
(PID.TID 0000.0001) // =======================================================
(PID.TID 0000.0001) //
(PID.TID 0000.0001) // "Physical" paramters ( PARM01 in namelist )
(PID.TID 0000.0001) //
(PID.TID 0000.0001) buoyancyRelation = /* Type of relation to get Buoyancy */
(PID.TID 0000.0001)               'ATMOSPHERIC'
(PID.TID 0000.0001)     ;
(PID.TID 0000.0001) fluidIsAir   =  /* fluid major constituent is Air */
(PID.TID 0000.0001)                   T
(PID.TID 0000.0001)     ;
(PID.TID 0000.0001) fluidIsWater =  /* fluid major constituent is Water */
(PID.TID 0000.0001)                   F
(PID.TID 0000.0001)     ;
(PID.TID 0000.0001) usingPCoords =  /* use p (or p*) vertical coordinate */
(PID.TID 0000.0001)                   T
(PID.TID 0000.0001)     ;
(PID.TID 0000.0001) usingZCoords =  /* use z (or z*) vertical coordinate */
(PID.TID 0000.0001)                   F
(PID.TID 0000.0001)     ;
(PID.TID 0000.0001) tRef =   /* Reference temperature profile ( oC or K ) */
(PID.TID 0000.0001)                 2.845000000000000E+02,      /* K =  1 */
(PID.TID 0000.0001)                 2.846000000000000E+02,      /* K =  2 */
(PID.TID 0000.0001)                 2.847000000000000E+02,      /* K =  3 */
(PID.TID 0000.0001)                 2.849000000000000E+02,      /* K =  4 */
(PID.TID 0000.0001)                 2.852000000000000E+02,      /* K =  5 */
(PID.TID 0000.0001)                 2.856000000000000E+02,      /* K =  6 */
(PID.TID 0000.0001)                 2.860000000000000E+02,      /* K =  7 */
(PID.TID 0000.0001)                 2.864000000000000E+02,      /* K =  8 */
(PID.TID 0000.0001)                 2.870000000000000E+02,      /* K =  9 */
(PID.TID 0000.0001)                 2.875000000000000E+02,      /* K = 10 */
(PID.TID 0000.0001)                 2.882000000000000E+02,      /* K = 11 */
(PID.TID 0000.0001)                 2.889000000000000E+02,      /* K = 12 */
(PID.TID 0000.0001)                 2.898000000000000E+02,      /* K = 13 */
(PID.TID 0000.0001)                 2.907000000000000E+02,      /* K = 14 */
(PID.TID 0000.0001)                 3.057000000000000E+02,      /* K = 15 */
(PID.TID 0000.0001)                 3.254000000000000E+02,      /* K = 16 */
(PID.TID 0000.0001)                 3.474000000000000E+02,      /* K = 17 */
(PID.TID 0000.0001)                 3.723000000000000E+02,      /* K = 18 */
(PID.TID 0000.0001)                 4.009000000000000E+02,      /* K = 19 */
(PID.TID 0000.0001)                 4.348000000000000E+02,      /* K = 20 */
(PID.TID 0000.0001)                 4.750000000000000E+02,      /* K = 21 */
(PID.TID 0000.0001)                 5.210000000000000E+02,      /* K = 22 */
(PID.TID 0000.0001)                 5.730000000000000E+02,      /* K = 23 */
(PID.TID 0000.0001)                 6.310000000000000E+02,      /* K = 24 */
(PID.TID 0000.0001)                 6.960000000000000E+02,      /* K = 25 */
(PID.TID 0000.0001)                 7.670000000000000E+02,      /* K = 26 */
(PID.TID 0000.0001)                 8.450000000000000E+02,      /* K = 27 */
(PID.TID 0000.0001)                 9.320000000000000E+02,      /* K = 28 */
(PID.TID 0000.0001)                 1.027000000000000E+03,      /* K = 29 */
(PID.TID 0000.0001)                 1.132000000000000E+03,      /* K = 30 */
(PID.TID 0000.0001)                 1.247000000000000E+03,      /* K = 31 */
(PID.TID 0000.0001)                 1.376000000000000E+03,      /* K = 32 */
(PID.TID 0000.0001)                 1.521000000000000E+03,      /* K = 33 */
(PID.TID 0000.0001)                 1.686000000000000E+03,      /* K = 34 */
(PID.TID 0000.0001)                 1.877000000000000E+03,      /* K = 35 */
(PID.TID 0000.0001)                 2.104000000000000E+03,      /* K = 36 */
(PID.TID 0000.0001)                 2.388000000000000E+03,      /* K = 37 */
(PID.TID 0000.0001)                 2.771000000000000E+03,      /* K = 38 */
(PID.TID 0000.0001)                 3.369000000000000E+03,      /* K = 39 */
(PID.TID 0000.0001)                 4.778000000000000E+03       /* K = 40 */
(PID.TID 0000.0001)     ;
(PID.TID 0000.0001) sRef =   /* Reference salinity profile ( psu ) */
(PID.TID 0000.0001)    40 @  0.000000000000000E+00              /* K =  1: 40 */
(PID.TID 0000.0001)     ;
(PID.TID 0000.0001) useStrainTensionVisc= /* Use StrainTension Form of Viscous Operator */
(PID.TID 0000.0001)                   F
(PID.TID 0000.0001)     ;
(PID.TID 0000.0001) useVariableVisc = /* Use variable horizontal viscosity */
(PID.TID 0000.0001)                   F
(PID.TID 0000.0001)     ;
(PID.TID 0000.0001) useHarmonicVisc = /* Use harmonic horizontal viscosity */
(PID.TID 0000.0001)                   F
(PID.TID 0000.0001)     ;
(PID.TID 0000.0001) useBiharmonicVisc= /* Use biharmonic horiz.  viscosity */
(PID.TID 0000.0001)                   F
(PID.TID 0000.0001)     ;
(PID.TID 0000.0001) useSmag3D = /* Use isotropic 3-D Smagorinsky viscosity */
(PID.TID 0000.0001)                   F
(PID.TID 0000.0001)     ;
(PID.TID 0000.0001) viscAh  =   /* Lateral harmonic viscosity ( m^2/s ) */
(PID.TID 0000.0001)                 0.000000000000000E+00
(PID.TID 0000.0001)     ;
(PID.TID 0000.0001) viscA4  =   /* Lateral biharmonic viscosity ( m^4/s ) */
(PID.TID 0000.0001)                 0.000000000000000E+00
(PID.TID 0000.0001)     ;
(PID.TID 0000.0001) no_slip_sides =  /* Viscous BCs: No-slip sides */
(PID.TID 0000.0001)                   F
(PID.TID 0000.0001)     ;
(PID.TID 0000.0001) sideDragFactor = /* side-drag scaling factor (non-dim) */
(PID.TID 0000.0001)                 2.000000000000000E+00
(PID.TID 0000.0001)     ;
(PID.TID 0000.0001) viscArNr = /* vertical profile of vertical viscosity (Pa^2/s )*/
(PID.TID 0000.0001)    40 @  0.000000000000000E+00              /* K =  1: 40 */
(PID.TID 0000.0001)     ;
(PID.TID 0000.0001) no_slip_bottom =  /* Viscous BCs: No-slip bottom */
(PID.TID 0000.0001)                   F
(PID.TID 0000.0001)     ;
(PID.TID 0000.0001) bottomVisc_pCell = /* Partial-cell in bottom Visc. BC */
(PID.TID 0000.0001)                   F
(PID.TID 0000.0001)     ;
(PID.TID 0000.0001) bottomDragLinear = /* linear bottom-drag coefficient ( m/s ) */
(PID.TID 0000.0001)                 0.000000000000000E+00
(PID.TID 0000.0001)     ;
(PID.TID 0000.0001) bottomDragQuadratic = /* quadratic bottom-drag coefficient (-) */
(PID.TID 0000.0001)                 0.000000000000000E+00
(PID.TID 0000.0001)     ;
(PID.TID 0000.0001) selectBotDragQuadr = /* select quadratic bottom drag options */
(PID.TID 0000.0001)                      -1
(PID.TID 0000.0001)     ;
(PID.TID 0000.0001) diffKhT =   /* Laplacian diffusion of heat laterally ( m^2/s ) */
(PID.TID 0000.0001)                 0.000000000000000E+00
(PID.TID 0000.0001)     ;
(PID.TID 0000.0001) diffK4T =   /* Biharmonic diffusion of heat laterally ( m^4/s ) */
(PID.TID 0000.0001)                 0.000000000000000E+00
(PID.TID 0000.0001)     ;
(PID.TID 0000.0001) diffKhS =   /* Laplacian diffusion of salt laterally ( m^2/s ) */
(PID.TID 0000.0001)                 0.000000000000000E+00
(PID.TID 0000.0001)     ;
(PID.TID 0000.0001) diffK4S =   /* Biharmonic diffusion of salt laterally ( m^4/s ) */
(PID.TID 0000.0001)                 0.000000000000000E+00
(PID.TID 0000.0001)     ;
(PID.TID 0000.0001) diffKrNrT = /* vertical profile of vertical diffusion of Temp (Pa^2/s )*/
(PID.TID 0000.0001)    40 @  0.000000000000000E+00              /* K =  1: 40 */
(PID.TID 0000.0001)     ;
(PID.TID 0000.0001) diffKrNrS = /* vertical profile of vertical diffusion of Salt (Pa^2/s )*/
(PID.TID 0000.0001)    40 @  0.000000000000000E+00              /* K =  1: 40 */
(PID.TID 0000.0001)     ;
(PID.TID 0000.0001) diffKrBL79surf = /* Surface diffusion for Bryan and Lewis 79 ( m^2/s ) */
(PID.TID 0000.0001)                 0.000000000000000E+00
(PID.TID 0000.0001)     ;
(PID.TID 0000.0001) diffKrBL79deep = /* Deep diffusion for Bryan and Lewis 1979 ( m^2/s ) */
(PID.TID 0000.0001)                 0.000000000000000E+00
(PID.TID 0000.0001)     ;
(PID.TID 0000.0001) diffKrBL79scl = /* Depth scale for Bryan and Lewis 1979 ( m ) */
(PID.TID 0000.0001)                 2.000000000000000E+02
(PID.TID 0000.0001)     ;
(PID.TID 0000.0001) diffKrBL79Ho = /* Turning depth for Bryan and Lewis 1979 ( m ) */
(PID.TID 0000.0001)                -2.000000000000000E+03
(PID.TID 0000.0001)     ;
(PID.TID 0000.0001) ivdc_kappa = /* Implicit Vertical Diffusivity for Convection (Pa^2/s) */
(PID.TID 0000.0001)                 0.000000000000000E+00
(PID.TID 0000.0001)     ;
(PID.TID 0000.0001) hMixCriteria=  /* Criteria for mixed-layer diagnostic */
(PID.TID 0000.0001)                -8.000000000000000E-01
(PID.TID 0000.0001)     ;
(PID.TID 0000.0001) dRhoSmall =  /* Parameter for mixed-layer diagnostic */
(PID.TID 0000.0001)                 1.000000000000000E-06
(PID.TID 0000.0001)     ;
(PID.TID 0000.0001) hMixSmooth=  /* Smoothing parameter for mixed-layer diagnostic */
(PID.TID 0000.0001)                 0.000000000000000E+00
(PID.TID 0000.0001)     ;
(PID.TID 0000.0001) eosType =  /* Type of Equation of State */
(PID.TID 0000.0001)               'IDEALG'
(PID.TID 0000.0001)     ;
(PID.TID 0000.0001) celsius2K = /* 0 degree Celsius converted to Kelvin ( K ) */
(PID.TID 0000.0001)                 2.731500000000000E+02
(PID.TID 0000.0001)     ;
(PID.TID 0000.0001) atm_Rd =    /* gas constant for dry air ( J/kg/K ) */
(PID.TID 0000.0001)                 2.870400000000000E+02
(PID.TID 0000.0001)     ;
(PID.TID 0000.0001) atm_Cp =    /* specific heat (Cp) of dry air ( J/kg/K ) */
(PID.TID 0000.0001)                 1.004640000000000E+03
(PID.TID 0000.0001)     ;
(PID.TID 0000.0001) atm_kappa = /* kappa (=Rd/Cp ) of dry air */
(PID.TID 0000.0001)                 2.857142857142857E-01
(PID.TID 0000.0001)     ;
(PID.TID 0000.0001) atm_Rq =  /* water vap. specific vol. anomaly relative to dry air */
(PID.TID 0000.0001)                 6.078000000000000E-01
(PID.TID 0000.0001)     ;
(PID.TID 0000.0001) atm_Po =    /* standard reference pressure ( Pa ) */
(PID.TID 0000.0001)                 1.000000000000000E+05
(PID.TID 0000.0001)     ;
(PID.TID 0000.0001) thetaConst= /* constant reference for potential temperature ( K ) */
(PID.TID 0000.0001)                 2.845000000000000E+02
(PID.TID 0000.0001)     ;
(PID.TID 0000.0001) integr_GeoPot =  /* select how the geopotential is integrated */
(PID.TID 0000.0001)                       2
(PID.TID 0000.0001)     ;
(PID.TID 0000.0001) selectFindRoSurf=  /* select how Surf.Ref. pressure is defined */
(PID.TID 0000.0001)                       1
(PID.TID 0000.0001)     ;
(PID.TID 0000.0001) rhoConst  = /* Reference density (Boussinesq)  ( kg/m^3 ) */
(PID.TID 0000.0001)                 9.998000000000000E+02
(PID.TID 0000.0001)     ;
(PID.TID 0000.0001) rhoFacC = /* normalized Reference density @ cell-Center (-) */
(PID.TID 0000.0001)    40 @  1.000000000000000E+00              /* K =  1: 40 */
(PID.TID 0000.0001)     ;
(PID.TID 0000.0001) rhoFacF = /* normalized Reference density @ W-Interface (-) */
(PID.TID 0000.0001)    41 @  1.000000000000000E+00              /* K =  1: 41 */
(PID.TID 0000.0001)     ;
(PID.TID 0000.0001) rhoConstFresh = /* Fresh-water reference density ( kg/m^3 ) */
(PID.TID 0000.0001)                 9.998000000000000E+02
(PID.TID 0000.0001)     ;
(PID.TID 0000.0001) gravity =   /* Gravitational acceleration ( m/s^2 ) */
(PID.TID 0000.0001)                 9.800000000000001E+00
(PID.TID 0000.0001)     ;
(PID.TID 0000.0001) gBaro =   /* Barotropic gravity ( m/s^2 ) */
(PID.TID 0000.0001)                 9.800000000000001E+00
(PID.TID 0000.0001)     ;
(PID.TID 0000.0001) gravFacC = /* gravity factor (vs surf.) @ cell-Center (-) */
(PID.TID 0000.0001)    40 @  1.000000000000000E+00              /* K =  1: 40 */
(PID.TID 0000.0001)     ;
(PID.TID 0000.0001) gravFacF = /* gravity factor (vs surf.) @ W-Interface (-) */
(PID.TID 0000.0001)    41 @  1.000000000000000E+00              /* K =  1: 41 */
(PID.TID 0000.0001)     ;
(PID.TID 0000.0001) rotationPeriod =   /* Rotation Period ( s ) */
(PID.TID 0000.0001)                 8.616400000000000E+04
(PID.TID 0000.0001)     ;
(PID.TID 0000.0001) omega =   /* Angular velocity ( rad/s ) */
(PID.TID 0000.0001)                 7.292123516990375E-05
(PID.TID 0000.0001)     ;
(PID.TID 0000.0001) f0 =   /* Reference coriolis parameter ( 1/s ) */
(PID.TID 0000.0001)                 1.000000000000000E-04
(PID.TID 0000.0001)     ;
(PID.TID 0000.0001) beta =   /* Beta ( 1/(m.s) ) */
(PID.TID 0000.0001)                 9.999999999999999E-12
(PID.TID 0000.0001)     ;
(PID.TID 0000.0001) fPrime =   /* Second coriolis parameter ( 1/s ) */
(PID.TID 0000.0001)                 0.000000000000000E+00
(PID.TID 0000.0001)     ;
(PID.TID 0000.0001) rigidLid =   /* Rigid lid on/off flag */
(PID.TID 0000.0001)                   F
(PID.TID 0000.0001)     ;
(PID.TID 0000.0001) implicitFreeSurface =   /* Implicit free surface on/off flag */
(PID.TID 0000.0001)                   T
(PID.TID 0000.0001)     ;
(PID.TID 0000.0001) freeSurfFac =   /* Implicit free surface factor */
(PID.TID 0000.0001)                 1.000000000000000E+00
(PID.TID 0000.0001)     ;
(PID.TID 0000.0001) implicSurfPress =  /* Surface Pressure implicit factor (0-1)*/
(PID.TID 0000.0001)                 1.000000000000000E+00
(PID.TID 0000.0001)     ;
(PID.TID 0000.0001) implicDiv2DFlow =  /* Barot. Flow Div. implicit factor (0-1)*/
(PID.TID 0000.0001)                 1.000000000000000E+00
(PID.TID 0000.0001)     ;
(PID.TID 0000.0001) uniformLin_PhiSurf = /* use uniform Bo_surf on/off flag*/
(PID.TID 0000.0001)                   F
(PID.TID 0000.0001)     ;
(PID.TID 0000.0001) uniformFreeSurfLev = /* free-surface level-index is uniform */
(PID.TID 0000.0001)                   F
(PID.TID 0000.0001)     ;
(PID.TID 0000.0001) hFacMin =   /* minimum partial cell factor (hFac) */
(PID.TID 0000.0001)                 1.000000000000000E+00
(PID.TID 0000.0001)     ;
(PID.TID 0000.0001) hFacMinDr = /* minimum partial cell thickness (Pa) */
(PID.TID 0000.0001)                 0.000000000000000E+00
(PID.TID 0000.0001)     ;
(PID.TID 0000.0001) exactConserv =  /* Exact Volume Conservation on/off flag*/
(PID.TID 0000.0001)                   T
(PID.TID 0000.0001)     ;
(PID.TID 0000.0001) linFSConserveTr = /* Tracer correction for Lin Free Surface on/off flag*/
(PID.TID 0000.0001)                   F
(PID.TID 0000.0001)     ;
(PID.TID 0000.0001) nonlinFreeSurf = /* Non-linear Free Surf. options (-1,0,1,2,3)*/
(PID.TID 0000.0001)                       4
(PID.TID 0000.0001)      -1,0= Off ; 1,2,3= On, 2=+rescale gU,gV, 3=+update cg2d solv.
(PID.TID 0000.0001)     ;
(PID.TID 0000.0001) hFacInf =   /* lower threshold for hFac (nonlinFreeSurf only)*/
(PID.TID 0000.0001)                 2.000000000000000E-01
(PID.TID 0000.0001)     ;
(PID.TID 0000.0001) hFacSup =   /* upper threshold for hFac (nonlinFreeSurf only)*/
(PID.TID 0000.0001)                 2.000000000000000E+00
(PID.TID 0000.0001)     ;
(PID.TID 0000.0001) select_rStar = /* r* Vertical coord. options (=0 r coord.; >0 uses r*)*/
(PID.TID 0000.0001)                       2
(PID.TID 0000.0001)     ;
(PID.TID 0000.0001) useRealFreshWaterFlux = /* Real Fresh Water Flux on/off flag*/
(PID.TID 0000.0001)                   F
(PID.TID 0000.0001)     ;
(PID.TID 0000.0001) temp_EvPrRn = /* Temp. of Evap/Prec/R (UNSET=use local T)(oC)*/
(PID.TID 0000.0001)                 1.234567000000000E+05
(PID.TID 0000.0001)     ;
(PID.TID 0000.0001) salt_EvPrRn = /* Salin. of Evap/Prec/R (UNSET=use local S)(psu)*/
(PID.TID 0000.0001)                 0.000000000000000E+00
(PID.TID 0000.0001)     ;
(PID.TID 0000.0001) selectAddFluid = /* option for mass source/sink of fluid (=0: off) */
(PID.TID 0000.0001)                       0
(PID.TID 0000.0001)     ;
(PID.TID 0000.0001) temp_addMass = /* Temp. of addMass array (UNSET=use local T)(oC)*/
(PID.TID 0000.0001)                 1.234567000000000E+05
(PID.TID 0000.0001)     ;
(PID.TID 0000.0001) salt_addMass = /* Salin. of addMass array (UNSET=use local S)(psu)*/
(PID.TID 0000.0001)                 0.000000000000000E+00
(PID.TID 0000.0001)     ;
(PID.TID 0000.0001) convertFW2Salt = /* convert F.W. Flux to Salt Flux (-1=use local S)(psu)*/
(PID.TID 0000.0001)                 3.500000000000000E+01
(PID.TID 0000.0001)     ;
(PID.TID 0000.0001) use3Dsolver = /* use 3-D pressure solver on/off flag */
(PID.TID 0000.0001)                   F
(PID.TID 0000.0001)     ;
(PID.TID 0000.0001) nonHydrostatic =  /* Non-Hydrostatic on/off flag */
(PID.TID 0000.0001)                   F
(PID.TID 0000.0001)     ;
(PID.TID 0000.0001) nh_Am2 = /* Non-Hydrostatic terms scaling factor */
(PID.TID 0000.0001)                 1.000000000000000E+00
(PID.TID 0000.0001)     ;
(PID.TID 0000.0001) implicitNHPress = /* Non-Hyd Pressure implicit factor (0-1)*/
(PID.TID 0000.0001)                 1.000000000000000E+00
(PID.TID 0000.0001)     ;
(PID.TID 0000.0001) selectNHfreeSurf = /* Non-Hyd (free-)Surface option */
(PID.TID 0000.0001)                       0
(PID.TID 0000.0001)     ;
(PID.TID 0000.0001) quasiHydrostatic = /* Quasi-Hydrostatic on/off flag */
(PID.TID 0000.0001)                   F
(PID.TID 0000.0001)     ;
(PID.TID 0000.0001) calc_wVelocity = /* vertical velocity calculation on/off flag */
(PID.TID 0000.0001)                   T
(PID.TID 0000.0001)     ;
(PID.TID 0000.0001) momStepping =  /* Momentum equation on/off flag */
(PID.TID 0000.0001)                   T
(PID.TID 0000.0001)     ;
(PID.TID 0000.0001) vectorInvariantMomentum= /* Vector-Invariant Momentum on/off */
(PID.TID 0000.0001)                   T
(PID.TID 0000.0001)     ;
(PID.TID 0000.0001) momAdvection =  /* Momentum advection on/off flag */
(PID.TID 0000.0001)                   T
(PID.TID 0000.0001)     ;
(PID.TID 0000.0001) momViscosity =  /* Momentum viscosity on/off flag */
(PID.TID 0000.0001)                   T
(PID.TID 0000.0001)     ;
(PID.TID 0000.0001) momImplVertAdv= /* Momentum implicit vert. advection on/off*/
(PID.TID 0000.0001)                   F
(PID.TID 0000.0001)     ;
(PID.TID 0000.0001) implicitViscosity = /* Implicit viscosity on/off flag */
(PID.TID 0000.0001)                   F
(PID.TID 0000.0001)     ;
(PID.TID 0000.0001) selectImplicitDrag= /* Implicit bot Drag options (0,1,2)*/
(PID.TID 0000.0001)                       0
(PID.TID 0000.0001)     0= Expl. ; 1= Impl. on provis. Vel ; 2= Fully Impl (with surf.P)
(PID.TID 0000.0001)     ;
(PID.TID 0000.0001) metricTerms =  /* metric-Terms on/off flag */
(PID.TID 0000.0001)                   F
(PID.TID 0000.0001)     ;
(PID.TID 0000.0001) useNHMTerms = /* Non-Hydrostatic Metric-Terms on/off */
(PID.TID 0000.0001)                   F
(PID.TID 0000.0001)     ;
(PID.TID 0000.0001) selectCoriMap = /* Coriolis Map options (0,1,2,3)*/
(PID.TID 0000.0001)                       2
(PID.TID 0000.0001)     0= f-Plane ; 1= Beta-Plane ; 2= Spherical ; 3= read from file
(PID.TID 0000.0001)     ;
(PID.TID 0000.0001) use3dCoriolis = /* 3-D Coriolis on/off flag */
(PID.TID 0000.0001)                   F
(PID.TID 0000.0001)     ;
(PID.TID 0000.0001) useCoriolis =  /* Coriolis on/off flag */
(PID.TID 0000.0001)                   T
(PID.TID 0000.0001)     ;
(PID.TID 0000.0001) useCDscheme =  /* CD scheme on/off flag */
(PID.TID 0000.0001)                   F
(PID.TID 0000.0001)     ;
(PID.TID 0000.0001) selectCoriScheme= /* Scheme selector for Coriolis-Term */
(PID.TID 0000.0001)                       2
(PID.TID 0000.0001)    = 0 : original discretization (simple averaging, no hFac)
(PID.TID 0000.0001)    = 1 : Wet-point averaging (Jamar & Ozer 1986)
(PID.TID 0000.0001)    = 2 : hFac weighted average (Angular Mom. conserving)
(PID.TID 0000.0001)    = 3 : energy conserving scheme using hFac weighted average
(PID.TID 0000.0001)     ;
(PID.TID 0000.0001) useAbsVorticity= /* V.I Works with f+zeta in Coriolis */
(PID.TID 0000.0001)                   F
(PID.TID 0000.0001)     ;
(PID.TID 0000.0001) selectVortScheme= /* V.I Scheme selector for Vorticity-Term */
(PID.TID 0000.0001)                       2
(PID.TID 0000.0001)    = 0 : enstrophy (Shallow-Water Eq.) conserving scheme by Sadourny, JAS 75
(PID.TID 0000.0001)    = 1 : same as 0 with modified hFac
(PID.TID 0000.0001)    = 2 : energy conserving scheme (used by Sadourny in JAS 75 paper)
(PID.TID 0000.0001)    = 3 : energy (general) and enstrophy (2D, nonDiv.) conserving scheme
(PID.TID 0000.0001)          from Sadourny (Burridge & Haseler, ECMWF Rep.4, 1977)
(PID.TID 0000.0001)     ;
(PID.TID 0000.0001) useJamartMomAdv= /* V.I Non-linear terms Jamart flag */
(PID.TID 0000.0001)                   F
(PID.TID 0000.0001)     ;
(PID.TID 0000.0001) upwindVorticity= /* V.I Upwind bias vorticity flag */
(PID.TID 0000.0001)                   F
(PID.TID 0000.0001)     ;
(PID.TID 0000.0001) highOrderVorticity= /* V.I High order vort. advect. flag */
(PID.TID 0000.0001)                   F
(PID.TID 0000.0001)     ;
(PID.TID 0000.0001) upwindShear= /* V.I Upwind vertical Shear advection flag */
(PID.TID 0000.0001)                   F
(PID.TID 0000.0001)     ;
(PID.TID 0000.0001) selectKEscheme= /* V.I Kinetic Energy scheme selector */
(PID.TID 0000.0001)                       2
(PID.TID 0000.0001)     ;
(PID.TID 0000.0001) momForcing =  /* Momentum forcing on/off flag */
(PID.TID 0000.0001)                   T
(PID.TID 0000.0001)     ;
(PID.TID 0000.0001) momTidalForcing = /* Momentum Tidal forcing on/off flag */
(PID.TID 0000.0001)                   T
(PID.TID 0000.0001)     ;
(PID.TID 0000.0001) momPressureForcing =  /* Momentum pressure term on/off flag */
(PID.TID 0000.0001)                   T
(PID.TID 0000.0001)     ;
(PID.TID 0000.0001) implicitIntGravWave= /* Implicit Internal Gravity Wave flag */
(PID.TID 0000.0001)                   F
(PID.TID 0000.0001)     ;
(PID.TID 0000.0001) staggerTimeStep =    /* Stagger time stepping on/off flag */
(PID.TID 0000.0001)                   T
(PID.TID 0000.0001)     ;
(PID.TID 0000.0001) doResetHFactors = /* reset thickness factors @ each time-step */
(PID.TID 0000.0001)                   F
(PID.TID 0000.0001)     ;
(PID.TID 0000.0001) multiDimAdvection =  /* enable/disable Multi-Dim Advection */
(PID.TID 0000.0001)                   T
(PID.TID 0000.0001)     ;
(PID.TID 0000.0001) useMultiDimAdvec =   /* Multi-Dim Advection is/is-not used */
(PID.TID 0000.0001)                   T
(PID.TID 0000.0001)     ;
(PID.TID 0000.0001) implicitDiffusion = /* Implicit Diffusion on/off flag */
(PID.TID 0000.0001)                   F
(PID.TID 0000.0001)     ;
(PID.TID 0000.0001) tempStepping =  /* Temperature equation on/off flag */
(PID.TID 0000.0001)                   T
(PID.TID 0000.0001)     ;
(PID.TID 0000.0001) tempAdvection = /* Temperature advection on/off flag */
(PID.TID 0000.0001)                   T
(PID.TID 0000.0001)     ;
(PID.TID 0000.0001) tempImplVertAdv = /* Temp. implicit vert. advection on/off */
(PID.TID 0000.0001)                   F
(PID.TID 0000.0001)     ;
(PID.TID 0000.0001) tempForcing  =  /* Temperature forcing on/off flag */
(PID.TID 0000.0001)                   T
(PID.TID 0000.0001)     ;
(PID.TID 0000.0001) addFrictionHeating= /* account for frictional heating */
(PID.TID 0000.0001)                   T
(PID.TID 0000.0001)     ;
(PID.TID 0000.0001) doThetaClimRelax = /* apply SST relaxation on/off flag */
(PID.TID 0000.0001)                   F
(PID.TID 0000.0001)     ;
(PID.TID 0000.0001) tempIsActiveTr = /* Temp. is a dynamically Active Tracer */
(PID.TID 0000.0001)                   T
(PID.TID 0000.0001)     ;
(PID.TID 0000.0001) saltStepping =  /* Salinity equation on/off flag */
(PID.TID 0000.0001)                   T
(PID.TID 0000.0001)     ;
(PID.TID 0000.0001) saltAdvection = /* Salinity advection on/off flag */
(PID.TID 0000.0001)                   T
(PID.TID 0000.0001)     ;
(PID.TID 0000.0001) saltImplVertAdv = /* Sali. implicit vert. advection on/off */
(PID.TID 0000.0001)                   F
(PID.TID 0000.0001)     ;
(PID.TID 0000.0001) saltForcing  =  /* Salinity forcing on/off flag */
(PID.TID 0000.0001)                   T
(PID.TID 0000.0001)     ;
(PID.TID 0000.0001) doSaltClimRelax = /* apply SSS relaxation on/off flag */
(PID.TID 0000.0001)                   F
(PID.TID 0000.0001)     ;
(PID.TID 0000.0001) saltIsActiveTr = /* Salt  is a dynamically Active Tracer */
(PID.TID 0000.0001)                   T
(PID.TID 0000.0001)     ;
(PID.TID 0000.0001)  readBinaryPrec = /* Precision used for reading binary files */
(PID.TID 0000.0001)                      64
(PID.TID 0000.0001)     ;
(PID.TID 0000.0001) writeBinaryPrec = /* Precision used for writing binary files */
(PID.TID 0000.0001)                      64
(PID.TID 0000.0001)     ;
(PID.TID 0000.0001)  rwSuffixType =   /* select format of mds file suffix */
(PID.TID 0000.0001)                       0
(PID.TID 0000.0001)    = 0 : myIter (I10.10) ;   = 1 : 100*myTime (100th sec) ;
(PID.TID 0000.0001)    = 2 : myTime (seconds);   = 3 : myTime/360 (10th of hr);
(PID.TID 0000.0001)    = 4 : myTime/3600 (hours)
(PID.TID 0000.0001)     ;
(PID.TID 0000.0001)  globalFiles = /* write "global" (=not per tile) files */
(PID.TID 0000.0001)                   F
(PID.TID 0000.0001)     ;
(PID.TID 0000.0001)  useSingleCpuIO = /* only master MPI process does I/O */
(PID.TID 0000.0001)                   T
(PID.TID 0000.0001)     ;
(PID.TID 0000.0001)  useSingleCpuInput = /* only master process reads input */
(PID.TID 0000.0001)                   T
(PID.TID 0000.0001)     ;
(PID.TID 0000.0001) /* debLev[*]  : level of debug & auxiliary message printing */
(PID.TID 0000.0001) debLevZero =  0 ; /* level of disabled aux. msg printing */
(PID.TID 0000.0001)    debLevA =  1 ; /* level of minimum  aux. msg printing */
(PID.TID 0000.0001)    debLevB =  2 ; /* level of low aux. print (report read-file opening)*/
(PID.TID 0000.0001)    debLevC =  3 ; /* level of moderate debug prt (most pkgs debug msg) */
(PID.TID 0000.0001)    debLevD =  4 ; /* level of enhanced debug prt (add DEBUG_STATS prt) */
(PID.TID 0000.0001)    debLevE =  5 ; /* level of extensive debug printing */
(PID.TID 0000.0001) debugLevel =  /* select debug printing level */
(PID.TID 0000.0001)                       2
(PID.TID 0000.0001)     ;
(PID.TID 0000.0001)  plotLevel =  /* select PLOT_FIELD printing level */
(PID.TID 0000.0001)                       2
(PID.TID 0000.0001)     ;
(PID.TID 0000.0001) //
(PID.TID 0000.0001) // Elliptic solver(s) paramters ( PARM02 in namelist )
(PID.TID 0000.0001) //
(PID.TID 0000.0001) cg2dMaxIters =   /* Upper limit on 2d con. grad iterations  */
(PID.TID 0000.0001)                     200
(PID.TID 0000.0001)     ;
(PID.TID 0000.0001) cg2dChkResFreq =   /* 2d con. grad convergence test frequency */
(PID.TID 0000.0001)                       1
(PID.TID 0000.0001)     ;
(PID.TID 0000.0001) cg2dUseMinResSol= /* use cg2d last-iter(=0) / min-resid.(=1) solution */
(PID.TID 0000.0001)                       0
(PID.TID 0000.0001)     ;
(PID.TID 0000.0001) cg2dTargetResidual =   /* 2d con. grad target residual  */
(PID.TID 0000.0001)                 1.000000000000000E-07
(PID.TID 0000.0001)     ;
(PID.TID 0000.0001) cg2dTargetResWunit =   /* CG2d target residual [W units] */
(PID.TID 0000.0001)                 1.000000000000000E-17
(PID.TID 0000.0001)     ;
(PID.TID 0000.0001) cg2dPreCondFreq =   /* Freq. for updating cg2d preconditioner */
(PID.TID 0000.0001)                       1
(PID.TID 0000.0001)     ;
(PID.TID 0000.0001) useSRCGSolver =  /* use single reduction CG solver(s) */
(PID.TID 0000.0001)                   F
(PID.TID 0000.0001)     ;
(PID.TID 0000.0001) printResidualFreq = /* Freq. for printing CG residual */
(PID.TID 0000.0001)                       0
(PID.TID 0000.0001)     ;
(PID.TID 0000.0001) //
(PID.TID 0000.0001) // Time stepping paramters ( PARM03 in namelist )
(PID.TID 0000.0001) //
(PID.TID 0000.0001) deltaTMom =   /* Momentum equation timestep ( s ) */
(PID.TID 0000.0001)                 2.400000000000000E+02
(PID.TID 0000.0001)     ;
(PID.TID 0000.0001) deltaTFreeSurf = /* FreeSurface equation timestep ( s ) */
(PID.TID 0000.0001)                 2.400000000000000E+02
(PID.TID 0000.0001)     ;
(PID.TID 0000.0001) dTtracerLev =  /* Tracer equation timestep ( s ) */
(PID.TID 0000.0001)    40 @  2.400000000000000E+02              /* K =  1: 40 */
(PID.TID 0000.0001)     ;
(PID.TID 0000.0001) deltaTClock  =   /* Model clock timestep ( s ) */
(PID.TID 0000.0001)                 2.400000000000000E+02
(PID.TID 0000.0001)     ;
(PID.TID 0000.0001) cAdjFreq =   /* Convective adjustment interval ( s ) */
(PID.TID 0000.0001)                 0.000000000000000E+00
(PID.TID 0000.0001)     ;
(PID.TID 0000.0001) momForcingOutAB = /* =1: take Momentum Forcing out of Adams-Bash. stepping */
(PID.TID 0000.0001)                       1
(PID.TID 0000.0001)     ;
(PID.TID 0000.0001) tracForcingOutAB = /* =1: take T,S,pTr Forcing out of Adams-Bash. stepping */
(PID.TID 0000.0001)                       1
(PID.TID 0000.0001)     ;
(PID.TID 0000.0001) momDissip_In_AB = /* put Dissipation Tendency in Adams-Bash. stepping */
(PID.TID 0000.0001)                   T
(PID.TID 0000.0001)     ;
(PID.TID 0000.0001) doAB_onGtGs = /* apply AB on Tendencies (rather than on T,S)*/
(PID.TID 0000.0001)                   T
(PID.TID 0000.0001)     ;
(PID.TID 0000.0001) abEps =   /* Adams-Bashforth-2 stabilizing weight */
(PID.TID 0000.0001)                 1.000000000000000E-01
(PID.TID 0000.0001)     ;
(PID.TID 0000.0001) applyExchUV_early = /* Apply EXCH to U,V earlier in time-step */
(PID.TID 0000.0001)                   F
(PID.TID 0000.0001)     ;
(PID.TID 0000.0001) pickupStrictlyMatch= /* stop if pickup do not strictly match */
(PID.TID 0000.0001)                   T
(PID.TID 0000.0001)     ;
(PID.TID 0000.0001) nIter0   =   /* Run starting timestep number */
(PID.TID 0000.0001)                  129600
(PID.TID 0000.0001)     ;
(PID.TID 0000.0001) nTimeSteps = /* Number of timesteps */
(PID.TID 0000.0001)                       8
(PID.TID 0000.0001)     ;
(PID.TID 0000.0001) nEndIter =   /* Run ending timestep number */
(PID.TID 0000.0001)                  129608
(PID.TID 0000.0001)     ;
(PID.TID 0000.0001) baseTime =   /* Model base time ( s ) */
(PID.TID 0000.0001)                 0.000000000000000E+00
(PID.TID 0000.0001)     ;
(PID.TID 0000.0001) startTime =  /* Run start time ( s ) */
(PID.TID 0000.0001)                 3.110400000000000E+07
(PID.TID 0000.0001)     ;
(PID.TID 0000.0001) endTime  =   /* Integration ending time ( s ) */
(PID.TID 0000.0001)                 3.110592000000000E+07
(PID.TID 0000.0001)     ;
(PID.TID 0000.0001) pChkPtFreq = /* Permanent restart/pickup file interval ( s ) */
(PID.TID 0000.0001)                 3.110400000000000E+07
(PID.TID 0000.0001)     ;
(PID.TID 0000.0001) chkPtFreq  = /* Rolling restart/pickup file interval ( s ) */
(PID.TID 0000.0001)                 7.776000000000000E+06
(PID.TID 0000.0001)     ;
(PID.TID 0000.0001) pickup_write_mdsio =   /* Model IO flag. */
(PID.TID 0000.0001)                   T
(PID.TID 0000.0001)     ;
(PID.TID 0000.0001) pickup_read_mdsio =   /* Model IO flag. */
(PID.TID 0000.0001)                   T
(PID.TID 0000.0001)     ;
(PID.TID 0000.0001) writePickupAtEnd =   /* Model IO flag. */
(PID.TID 0000.0001)                   T
(PID.TID 0000.0001)     ;
(PID.TID 0000.0001) dumpFreq =   /* Model state write out interval ( s ). */
(PID.TID 0000.0001)                 1.555200000000000E+07
(PID.TID 0000.0001)     ;
(PID.TID 0000.0001) dumpInitAndLast= /* write out Initial & Last iter. model state */
(PID.TID 0000.0001)                   T
(PID.TID 0000.0001)     ;
(PID.TID 0000.0001) snapshot_mdsio =   /* Model IO flag. */
(PID.TID 0000.0001)                   T
(PID.TID 0000.0001)     ;
(PID.TID 0000.0001) monitorFreq =   /* Monitor output interval ( s ). */
(PID.TID 0000.0001)                 1.000000000000000E+00
(PID.TID 0000.0001)     ;
(PID.TID 0000.0001) monitorSelect = /* select group of variables to monitor */
(PID.TID 0000.0001)                       2
(PID.TID 0000.0001)     ;
(PID.TID 0000.0001) monitor_stdio =   /* Model IO flag. */
(PID.TID 0000.0001)                   T
(PID.TID 0000.0001)     ;
(PID.TID 0000.0001) externForcingPeriod =   /* forcing period (s) */
(PID.TID 0000.0001)                 0.000000000000000E+00
(PID.TID 0000.0001)     ;
(PID.TID 0000.0001) externForcingCycle =   /* period of the cyle (s). */
(PID.TID 0000.0001)                 0.000000000000000E+00
(PID.TID 0000.0001)     ;
(PID.TID 0000.0001) tauThetaClimRelax =   /* relaxation time scale (s) */
(PID.TID 0000.0001)                 0.000000000000000E+00
(PID.TID 0000.0001)     ;
(PID.TID 0000.0001) tauSaltClimRelax =   /* relaxation time scale (s) */
(PID.TID 0000.0001)                 0.000000000000000E+00
(PID.TID 0000.0001)     ;
(PID.TID 0000.0001) latBandClimRelax =   /* max. Lat. where relaxation */
(PID.TID 0000.0001)                 1.800000000000000E+02
(PID.TID 0000.0001)     ;
(PID.TID 0000.0001) //
(PID.TID 0000.0001) // Gridding paramters ( PARM04 in namelist )
(PID.TID 0000.0001) //
(PID.TID 0000.0001) usingCartesianGrid = /* Cartesian coordinates flag ( True/False ) */
(PID.TID 0000.0001)                   F
(PID.TID 0000.0001)     ;
(PID.TID 0000.0001) usingCylindricalGrid = /* Cylindrical coordinates flag ( True/False ) */
(PID.TID 0000.0001)                   F
(PID.TID 0000.0001)     ;
(PID.TID 0000.0001) usingSphericalPolarGrid = /* Spherical coordinates flag ( True/False ) */
(PID.TID 0000.0001)                   F
(PID.TID 0000.0001)     ;
(PID.TID 0000.0001) usingCurvilinearGrid = /* Curvilinear coordinates flag ( True/False ) */
(PID.TID 0000.0001)                   T
(PID.TID 0000.0001)     ;
(PID.TID 0000.0001) useMin4hFacEdges = /* set hFacW,S as minimum of adjacent hFacC factor */
(PID.TID 0000.0001)                   F
(PID.TID 0000.0001)     ;
(PID.TID 0000.0001) interViscAr_pCell = /* account for partial-cell in interior vert. viscosity */
(PID.TID 0000.0001)                   F
(PID.TID 0000.0001)     ;
(PID.TID 0000.0001) interDiffKr_pCell = /* account for partial-cell in interior vert. diffusion */
(PID.TID 0000.0001)                   F
(PID.TID 0000.0001)     ;
(PID.TID 0000.0001) pCellMix_select = /* option to enhance mixing near surface & bottom */
(PID.TID 0000.0001)                       0
(PID.TID 0000.0001)     ;
(PID.TID 0000.0001) selectSigmaCoord = /* Hybrid-Sigma Vert. Coordinate option */
(PID.TID 0000.0001)                       0
(PID.TID 0000.0001)     ;
(PID.TID 0000.0001) rSigmaBnd = /* r/sigma transition ( units of r == Pa ) */
(PID.TID 0000.0001)                 1.234567000000000E+05
(PID.TID 0000.0001)     ;
(PID.TID 0000.0001) rkSign =   /* index orientation relative to vertical coordinate */
(PID.TID 0000.0001)                -1.000000000000000E+00
(PID.TID 0000.0001)     ;
(PID.TID 0000.0001) gravitySign = /* gravity orientation relative to vertical coordinate */
(PID.TID 0000.0001)                 1.000000000000000E+00
(PID.TID 0000.0001)     ;
(PID.TID 0000.0001) seaLev_Z =  /* reference height of sea-level [m] */
(PID.TID 0000.0001)                 0.000000000000000E+00
(PID.TID 0000.0001)     ;
(PID.TID 0000.0001) top_Pres =  /* pressure at the top (r-axis origin) [Pa] */
(PID.TID 0000.0001)                 0.000000000000000E+00
(PID.TID 0000.0001)     ;
(PID.TID 0000.0001) mass2rUnit = /* convert mass per unit area [kg/m2] to r-units [Pa] */
(PID.TID 0000.0001)                 9.800000000000001E+00
(PID.TID 0000.0001)     ;
(PID.TID 0000.0001) rUnit2mass = /* convert r-units [Pa] to mass per unit area [kg/m2] */
(PID.TID 0000.0001)                 1.020408163265306E-01
(PID.TID 0000.0001)     ;
(PID.TID 0000.0001) drC =   /* C spacing ( units of r ) */
(PID.TID 0000.0001)                 7.500000000000000E+02,      /* K =  1 */
(PID.TID 0000.0001)                 1.811000000000000E+03,      /* K =  2 */
(PID.TID 0000.0001)                 2.561000000000000E+03,      /* K =  3 */
(PID.TID 0000.0001)                 3.621000000000000E+03,      /* K =  4 */
(PID.TID 0000.0001)                 5.071000000000000E+03,      /* K =  5 */
(PID.TID 0000.0001)                 6.150000000000000E+03,      /* K =  6 */
(PID.TID 0000.0001)                 6.500000000000000E+03,      /* K =  7 */
(PID.TID 0000.0001)     5 @  6.600000000000000E+03,             /* K =  8: 12 */
(PID.TID 0000.0001)                 6.450000000000000E+03,      /* K = 13 */
(PID.TID 0000.0001)                 6.070000000000000E+03,      /* K = 14 */
(PID.TID 0000.0001)                 5.355000000000000E+03,      /* K = 15 */
(PID.TID 0000.0001)                 4.465000000000000E+03,      /* K = 16 */
(PID.TID 0000.0001)                 3.725000000000000E+03,      /* K = 17 */
(PID.TID 0000.0001)                 3.110000000000000E+03,      /* K = 18 */
(PID.TID 0000.0001)                 2.595000000000000E+03,      /* K = 19 */
(PID.TID 0000.0001)                 2.165000000000000E+03,      /* K = 20 */
(PID.TID 0000.0001)                 1.744000000000000E+03,      /* K = 21 */
(PID.TID 0000.0001)                 1.344000000000000E+03,      /* K = 22 */
(PID.TID 0000.0001)                 1.005000000000000E+03,      /* K = 23 */
(PID.TID 0000.0001)                 7.200000000000000E+02,      /* K = 24 */
(PID.TID 0000.0001)                 5.140000000000000E+02,      /* K = 25 */
(PID.TID 0000.0001)                 3.670000000000000E+02,      /* K = 26 */
(PID.TID 0000.0001)                 2.620000000000000E+02,      /* K = 27 */
(PID.TID 0000.0001)                 1.865000000000000E+02,      /* K = 28 */
(PID.TID 0000.0001)                 1.325000000000000E+02,      /* K = 29 */
(PID.TID 0000.0001)                 9.400000000000000E+01,      /* K = 30 */
(PID.TID 0000.0001)                 6.700000000000000E+01,      /* K = 31 */
(PID.TID 0000.0001)                 4.800000000000000E+01,      /* K = 32 */
(PID.TID 0000.0001)                 3.450000000000000E+01,      /* K = 33 */
(PID.TID 0000.0001)                 2.500000000000000E+01,      /* K = 34 */
(PID.TID 0000.0001)                 1.800000000000000E+01,      /* K = 35 */
(PID.TID 0000.0001)                 1.300000000000000E+01,      /* K = 36 */
(PID.TID 0000.0001)                 9.500000000000000E+00,      /* K = 37 */
(PID.TID 0000.0001)                 6.900000000000000E+00,      /* K = 38 */
(PID.TID 0000.0001)                 5.000000000000000E+00,      /* K = 39 */
(PID.TID 0000.0001)                 3.600000000000000E+00,      /* K = 40 */
(PID.TID 0000.0001)                 1.500000000000000E+00       /* K = 41 */
(PID.TID 0000.0001)     ;
(PID.TID 0000.0001) drF =   /* W spacing ( units of r ) */
(PID.TID 0000.0001)                 1.500000000000000E+03,      /* K =  1 */
(PID.TID 0000.0001)                 2.122000000000000E+03,      /* K =  2 */
(PID.TID 0000.0001)                 3.000000000000000E+03,      /* K =  3 */
(PID.TID 0000.0001)                 4.242000000000000E+03,      /* K =  4 */
(PID.TID 0000.0001)                 5.900000000000000E+03,      /* K =  5 */
(PID.TID 0000.0001)                 6.400000000000000E+03,      /* K =  6 */
(PID.TID 0000.0001)     6 @  6.600000000000000E+03,             /* K =  7: 12 */
(PID.TID 0000.0001)                 6.300000000000000E+03,      /* K = 13 */
(PID.TID 0000.0001)                 5.840000000000000E+03,      /* K = 14 */
(PID.TID 0000.0001)                 4.870000000000000E+03,      /* K = 15 */
(PID.TID 0000.0001)                 4.060000000000000E+03,      /* K = 16 */
(PID.TID 0000.0001)                 3.390000000000000E+03,      /* K = 17 */
(PID.TID 0000.0001)                 2.830000000000000E+03,      /* K = 18 */
(PID.TID 0000.0001)                 2.360000000000000E+03,      /* K = 19 */
(PID.TID 0000.0001)                 1.970000000000000E+03,      /* K = 20 */
(PID.TID 0000.0001)                 1.518000000000000E+03,      /* K = 21 */
(PID.TID 0000.0001)                 1.170000000000000E+03,      /* K = 22 */
(PID.TID 0000.0001)                 8.400000000000000E+02,      /* K = 23 */
(PID.TID 0000.0001)                 6.000000000000000E+02,      /* K = 24 */
(PID.TID 0000.0001)                 4.280000000000000E+02,      /* K = 25 */
(PID.TID 0000.0001)                 3.060000000000000E+02,      /* K = 26 */
(PID.TID 0000.0001)                 2.180000000000000E+02,      /* K = 27 */
(PID.TID 0000.0001)                 1.550000000000000E+02,      /* K = 28 */
(PID.TID 0000.0001)                 1.100000000000000E+02,      /* K = 29 */
(PID.TID 0000.0001)                 7.800000000000000E+01,      /* K = 30 */
(PID.TID 0000.0001)                 5.600000000000000E+01,      /* K = 31 */
(PID.TID 0000.0001)                 4.000000000000000E+01,      /* K = 32 */
(PID.TID 0000.0001)                 2.900000000000000E+01,      /* K = 33 */
(PID.TID 0000.0001)                 2.100000000000000E+01,      /* K = 34 */
(PID.TID 0000.0001)                 1.500000000000000E+01,      /* K = 35 */
(PID.TID 0000.0001)                 1.100000000000000E+01,      /* K = 36 */
(PID.TID 0000.0001)                 8.000000000000000E+00,      /* K = 37 */
(PID.TID 0000.0001)                 5.800000000000000E+00,      /* K = 38 */
(PID.TID 0000.0001)                 4.200000000000000E+00,      /* K = 39 */
(PID.TID 0000.0001)                 3.000000000000000E+00       /* K = 40 */
(PID.TID 0000.0001)     ;
(PID.TID 0000.0001) radius_fromHorizGrid = /* sphere Radius of input horiz. grid */
(PID.TID 0000.0001)                 6.370000000000000E+06
(PID.TID 0000.0001)     ;
(PID.TID 0000.0001) rSphere =  /* Radius ( ignored - cartesian, m - spherical ) */
(PID.TID 0000.0001)                 6.370000000000000E+06
(PID.TID 0000.0001)     ;
(PID.TID 0000.0001) deepAtmosphere = /* Deep/Shallow Atmosphere flag (True/False) */
(PID.TID 0000.0001)                   F
(PID.TID 0000.0001)     ;
(PID.TID 0000.0001) xC =  /* xC(:,1,:,1) : P-point X coord ( deg. or m if cartesian) */
(PID.TID 0000.0001)                -4.439521994760536E+01,      /* I =  1 */
(PID.TID 0000.0001)                -4.295641272275883E+01,      /* I =  2 */
(PID.TID 0000.0001)                -4.122055553388957E+01,      /* I =  3 */
(PID.TID 0000.0001)      . . .
(PID.TID 0000.0001)                 8.070819219728060E+01,      /* I = 46 */
(PID.TID 0000.0001)                 8.439652466417766E+01,      /* I = 47 */
(PID.TID 0000.0001)                 8.812739148696656E+01,      /* I = 48 */
(PID.TID 0000.0001)                 9.187260851303344E+01,      /* I = 49 */
(PID.TID 0000.0001)                 9.560347533582234E+01,      /* I = 50 */
(PID.TID 0000.0001)                 9.929180780271940E+01,      /* I = 51 */
(PID.TID 0000.0001)      . . .
(PID.TID 0000.0001)                 1.321863035748696E+02,      /* I = 94 */
(PID.TID 0000.0001)                 1.337919453120370E+02,      /* I = 95 */
(PID.TID 0000.0001)                 1.350000000000000E+02,      /* I = 96 */
(PID.TID 0000.0001)                 1.356047800523947E+02,      /* I = 97 */
(PID.TID 0000.0001)                 1.358367907661329E+02,      /* I = 98 */
(PID.TID 0000.0001)                 1.359720382181193E+02,      /* I = 99 */
(PID.TID 0000.0001)      . . .
(PID.TID 0000.0001)                -1.336511021209287E+02,      /* I =142 */
(PID.TID 0000.0001)                -1.336469399409420E+02,      /* I =143 */
(PID.TID 0000.0001)                -1.336449032499283E+02,      /* I =144 */
(PID.TID 0000.0001)                -1.336449032499283E+02,      /* I =145 */
(PID.TID 0000.0001)                -1.336469399409420E+02,      /* I =146 */
(PID.TID 0000.0001)                -1.336511021209287E+02,      /* I =147 */
(PID.TID 0000.0001)      . . .
(PID.TID 0000.0001)                 1.378136964251304E+02,      /* I =190 */
(PID.TID 0000.0001)                 1.362080546879630E+02,      /* I =191 */
(PID.TID 0000.0001)                 1.350000000000000E+02       /* I =192 */
(PID.TID 0000.0001)     ;
(PID.TID 0000.0001) yC =  /* yC(1,:,1,:) : P-point Y coord ( deg. or m if cartesian) */
(PID.TID 0000.0001)                -3.497677942598243E+01,      /* J =  1 */
(PID.TID 0000.0001)                -3.374005967394886E+01,      /* J =  2 */
(PID.TID 0000.0001)                -3.220655175667454E+01,      /* J =  3 */
(PID.TID 0000.0001)                -3.045756348838641E+01,      /* J =  4 */
(PID.TID 0000.0001)                -2.853728129852918E+01,      /* J =  5 */
(PID.TID 0000.0001)                -2.647426640173173E+01,      /* J =  6 */
(PID.TID 0000.0001)                -2.428936657094636E+01,      /* J =  7 */
(PID.TID 0000.0001)                -2.199915808312262E+01,      /* J =  8 */
(PID.TID 0000.0001)                -1.961768597440146E+01,      /* J =  9 */
(PID.TID 0000.0001)                -1.715743888281371E+01,      /* J = 10 */
(PID.TID 0000.0001)                -1.462993396899330E+01,      /* J = 11 */
(PID.TID 0000.0001)                -1.204608340464756E+01,      /* J = 12 */
(PID.TID 0000.0001)                -9.416429130284818E+00,      /* J = 13 */
(PID.TID 0000.0001)                -6.751293662992216E+00,      /* J = 14 */
(PID.TID 0000.0001)                -4.060875511835959E+00,      /* J = 15 */
(PID.TID 0000.0001)                -1.355307764409121E+00,      /* J = 16 */
(PID.TID 0000.0001)                 1.355307764409121E+00,      /* J = 17 */
(PID.TID 0000.0001)                 4.060875511835959E+00,      /* J = 18 */
(PID.TID 0000.0001)                 6.751293662992216E+00,      /* J = 19 */
(PID.TID 0000.0001)                 9.416429130284818E+00,      /* J = 20 */
(PID.TID 0000.0001)                 1.204608340464756E+01,      /* J = 21 */
(PID.TID 0000.0001)                 1.462993396899330E+01,      /* J = 22 */
(PID.TID 0000.0001)                 1.715743888281371E+01,      /* J = 23 */
(PID.TID 0000.0001)                 1.961768597440146E+01,      /* J = 24 */
(PID.TID 0000.0001)                 2.199915808312262E+01,      /* J = 25 */
(PID.TID 0000.0001)                 2.428936657094636E+01,      /* J = 26 */
(PID.TID 0000.0001)                 2.647426640173173E+01,      /* J = 27 */
(PID.TID 0000.0001)                 2.853728129852918E+01,      /* J = 28 */
(PID.TID 0000.0001)                 3.045756348838641E+01,      /* J = 29 */
(PID.TID 0000.0001)                 3.220655175667454E+01,      /* J = 30 */
(PID.TID 0000.0001)                 3.374005967394886E+01,      /* J = 31 */
(PID.TID 0000.0001)                 3.497677942598243E+01       /* J = 32 */
(PID.TID 0000.0001)     ;
(PID.TID 0000.0001) rcoord = /* P-point R coordinate (  units of r ) */
(PID.TID 0000.0001)                 9.925000000000000E+04,      /* K =  1 */
(PID.TID 0000.0001)                 9.743900000000000E+04,      /* K =  2 */
(PID.TID 0000.0001)                 9.487800000000000E+04,      /* K =  3 */
(PID.TID 0000.0001)                 9.125700000000000E+04,      /* K =  4 */
(PID.TID 0000.0001)                 8.618600000000000E+04,      /* K =  5 */
(PID.TID 0000.0001)                 8.003600000000000E+04,      /* K =  6 */
(PID.TID 0000.0001)                 7.353600000000000E+04,      /* K =  7 */
(PID.TID 0000.0001)                 6.693600000000000E+04,      /* K =  8 */
(PID.TID 0000.0001)                 6.033600000000000E+04,      /* K =  9 */
(PID.TID 0000.0001)                 5.373600000000000E+04,      /* K = 10 */
(PID.TID 0000.0001)                 4.713600000000000E+04,      /* K = 11 */
(PID.TID 0000.0001)                 4.053600000000000E+04,      /* K = 12 */
(PID.TID 0000.0001)                 3.408600000000000E+04,      /* K = 13 */
(PID.TID 0000.0001)                 2.801600000000000E+04,      /* K = 14 */
(PID.TID 0000.0001)                 2.266100000000000E+04,      /* K = 15 */
(PID.TID 0000.0001)                 1.819600000000000E+04,      /* K = 16 */
(PID.TID 0000.0001)                 1.447100000000000E+04,      /* K = 17 */
(PID.TID 0000.0001)                 1.136100000000000E+04,      /* K = 18 */
(PID.TID 0000.0001)                 8.766000000000000E+03,      /* K = 19 */
(PID.TID 0000.0001)                 6.601000000000000E+03,      /* K = 20 */
(PID.TID 0000.0001)                 4.857000000000000E+03,      /* K = 21 */
(PID.TID 0000.0001)                 3.513000000000000E+03,      /* K = 22 */
(PID.TID 0000.0001)                 2.508000000000000E+03,      /* K = 23 */
(PID.TID 0000.0001)                 1.788000000000000E+03,      /* K = 24 */
(PID.TID 0000.0001)                 1.274000000000000E+03,      /* K = 25 */
(PID.TID 0000.0001)                 9.070000000000000E+02,      /* K = 26 */
(PID.TID 0000.0001)                 6.450000000000000E+02,      /* K = 27 */
(PID.TID 0000.0001)                 4.585000000000000E+02,      /* K = 28 */
(PID.TID 0000.0001)                 3.260000000000000E+02,      /* K = 29 */
(PID.TID 0000.0001)                 2.320000000000000E+02,      /* K = 30 */
(PID.TID 0000.0001)                 1.650000000000000E+02,      /* K = 31 */
(PID.TID 0000.0001)                 1.170000000000000E+02,      /* K = 32 */
(PID.TID 0000.0001)                 8.250000000000000E+01,      /* K = 33 */
(PID.TID 0000.0001)                 5.750000000000000E+01,      /* K = 34 */
(PID.TID 0000.0001)                 3.950000000000000E+01,      /* K = 35 */
(PID.TID 0000.0001)                 2.650000000000000E+01,      /* K = 36 */
(PID.TID 0000.0001)                 1.700000000000000E+01,      /* K = 37 */
(PID.TID 0000.0001)                 1.010000000000000E+01,      /* K = 38 */
(PID.TID 0000.0001)                 5.100000000000000E+00,      /* K = 39 */
(PID.TID 0000.0001)                 1.500000000000000E+00       /* K = 40 */
(PID.TID 0000.0001)     ;
(PID.TID 0000.0001) rF =   /* W-Interf. R coordinate (  units of r ) */
(PID.TID 0000.0001)                 1.000000000000000E+05,      /* K =  1 */
(PID.TID 0000.0001)                 9.850000000000000E+04,      /* K =  2 */
(PID.TID 0000.0001)                 9.637800000000000E+04,      /* K =  3 */
(PID.TID 0000.0001)                 9.337800000000000E+04,      /* K =  4 */
(PID.TID 0000.0001)                 8.913600000000000E+04,      /* K =  5 */
(PID.TID 0000.0001)                 8.323600000000000E+04,      /* K =  6 */
(PID.TID 0000.0001)                 7.683600000000000E+04,      /* K =  7 */
(PID.TID 0000.0001)                 7.023600000000000E+04,      /* K =  8 */
(PID.TID 0000.0001)                 6.363600000000000E+04,      /* K =  9 */
(PID.TID 0000.0001)                 5.703600000000000E+04,      /* K = 10 */
(PID.TID 0000.0001)                 5.043600000000000E+04,      /* K = 11 */
(PID.TID 0000.0001)                 4.383600000000000E+04,      /* K = 12 */
(PID.TID 0000.0001)                 3.723600000000000E+04,      /* K = 13 */
(PID.TID 0000.0001)                 3.093600000000000E+04,      /* K = 14 */
(PID.TID 0000.0001)                 2.509600000000000E+04,      /* K = 15 */
(PID.TID 0000.0001)                 2.022600000000000E+04,      /* K = 16 */
(PID.TID 0000.0001)                 1.616600000000000E+04,      /* K = 17 */
(PID.TID 0000.0001)                 1.277600000000000E+04,      /* K = 18 */
(PID.TID 0000.0001)                 9.946000000000000E+03,      /* K = 19 */
(PID.TID 0000.0001)                 7.586000000000000E+03,      /* K = 20 */
(PID.TID 0000.0001)                 5.616000000000000E+03,      /* K = 21 */
(PID.TID 0000.0001)                 4.098000000000000E+03,      /* K = 22 */
(PID.TID 0000.0001)                 2.928000000000000E+03,      /* K = 23 */
(PID.TID 0000.0001)                 2.088000000000000E+03,      /* K = 24 */
(PID.TID 0000.0001)                 1.488000000000000E+03,      /* K = 25 */
(PID.TID 0000.0001)                 1.060000000000000E+03,      /* K = 26 */
(PID.TID 0000.0001)                 7.540000000000000E+02,      /* K = 27 */
(PID.TID 0000.0001)                 5.360000000000000E+02,      /* K = 28 */
(PID.TID 0000.0001)                 3.810000000000000E+02,      /* K = 29 */
(PID.TID 0000.0001)                 2.710000000000000E+02,      /* K = 30 */
(PID.TID 0000.0001)                 1.930000000000000E+02,      /* K = 31 */
(PID.TID 0000.0001)                 1.370000000000000E+02,      /* K = 32 */
(PID.TID 0000.0001)                 9.700000000000000E+01,      /* K = 33 */
(PID.TID 0000.0001)                 6.800000000000000E+01,      /* K = 34 */
(PID.TID 0000.0001)                 4.700000000000000E+01,      /* K = 35 */
(PID.TID 0000.0001)                 3.200000000000000E+01,      /* K = 36 */
(PID.TID 0000.0001)                 2.100000000000000E+01,      /* K = 37 */
(PID.TID 0000.0001)                 1.300000000000000E+01,      /* K = 38 */
(PID.TID 0000.0001)                 7.200000000000000E+00,      /* K = 39 */
(PID.TID 0000.0001)                 3.000000000000000E+00,      /* K = 40 */
(PID.TID 0000.0001)                 0.000000000000000E+00       /* K = 41 */
(PID.TID 0000.0001)     ;
(PID.TID 0000.0001) deepFacC = /* deep-model grid factor @ cell-Center (-) */
(PID.TID 0000.0001)    40 @  1.000000000000000E+00              /* K =  1: 40 */
(PID.TID 0000.0001)     ;
(PID.TID 0000.0001) deepFacF = /* deep-model grid factor @ W-Interface (-) */
(PID.TID 0000.0001)    41 @  1.000000000000000E+00              /* K =  1: 41 */
(PID.TID 0000.0001)     ;
(PID.TID 0000.0001) rVel2wUnit = /* convert units: rVel -> wSpeed (=1 if z-coord)*/
(PID.TID 0000.0001)                 8.332946938775508E-02,      /* K =  1 */
(PID.TID 0000.0001)                 8.424872603177321E-02,      /* K =  2 */
(PID.TID 0000.0001)                 8.559962931744360E-02,      /* K =  3 */
(PID.TID 0000.0001)                 8.760123134297228E-02,      /* K =  4 */
(PID.TID 0000.0001)                 9.063871060718030E-02,      /* K =  5 */
(PID.TID 0000.0001)                 9.529955764982855E-02,      /* K =  6 */
(PID.TID 0000.0001)                 1.010457463216561E-01,      /* K =  7 */
(PID.TID 0000.0001)                 1.078912287632701E-01,      /* K =  8 */
(PID.TID 0000.0001)                 1.159728345420879E-01,      /* K =  9 */
(PID.TID 0000.0001)                 1.256480131743050E-01,      /* K = 10 */
(PID.TID 0000.0001)                 1.374708748774900E-01,      /* K = 11 */
(PID.TID 0000.0001)                 1.523254545283016E-01,      /* K = 12 */
(PID.TID 0000.0001)                 1.716306380138658E-01,      /* K = 13 */
(PID.TID 0000.0001)                 1.965362866184902E-01,      /* K = 14 */
(PID.TID 0000.0001)                 2.344649390774571E-01,      /* K = 15 */
(PID.TID 0000.0001)                 2.894430324235276E-01,      /* K = 16 */
(PID.TID 0000.0001)                 3.621230821852761E-01,      /* K = 17 */
(PID.TID 0000.0001)                 4.582760990270145E-01,      /* K = 18 */
(PID.TID 0000.0001)                 5.887671689592858E-01,      /* K = 19 */
(PID.TID 0000.0001)                 7.721960609482142E-01,      /* K = 20 */
(PID.TID 0000.0001)                 1.042074191939936E+00,      /* K = 21 */
(PID.TID 0000.0001)                 1.428781180708119E+00,      /* K = 22 */
(PID.TID 0000.0001)                 1.995308482645557E+00,      /* K = 23 */
(PID.TID 0000.0001)                 2.795795110222663E+00,      /* K = 24 */
(PID.TID 0000.0001)                 3.925011137605292E+00,      /* K = 25 */
(PID.TID 0000.0001)                 5.513488672597872E+00,      /* K = 26 */
(PID.TID 0000.0001)                 7.748447804294777E+00,      /* K = 27 */
(PID.TID 0000.0001)                 1.089930806750908E+01,      /* K = 28 */
(PID.TID 0000.0001)                 1.533315470920795E+01,      /* K = 29 */
(PID.TID 0000.0001)                 2.155422221820499E+01,      /* K = 30 */
(PID.TID 0000.0001)                 3.026693391178826E+01,      /* K = 31 */
(PID.TID 0000.0001)                 4.262694763675996E+01,      /* K = 32 */
(PID.TID 0000.0001)                 6.024773846204115E+01,      /* K = 33 */
(PID.TID 0000.0001)                 8.595654359392934E+01,      /* K = 34 */
(PID.TID 0000.0001)                 1.243297702105561E+02,      /* K = 35 */
(PID.TID 0000.0001)                 1.828100096802570E+02,      /* K = 36 */
(PID.TID 0000.0001)                 2.786841798234797E+02,      /* K = 37 */
(PID.TID 0000.0001)                 4.508235829142654E+02,      /* K = 38 */
(PID.TID 0000.0001)                 8.182818869712390E+02,      /* K = 39 */
(PID.TID 0000.0001)                 2.029138735748477E+03,      /* K = 40 */
(PID.TID 0000.0001)                 1.000000000000000E+00       /* K = 41 */
(PID.TID 0000.0001)     ;
(PID.TID 0000.0001) wUnit2rVel = /* convert units: wSpeed -> rVel (=1 if z-coord)*/
(PID.TID 0000.0001)                 1.200055643396363E+01,      /* K =  1 */
(PID.TID 0000.0001)                 1.186961568561718E+01,      /* K =  2 */
(PID.TID 0000.0001)                 1.168229357970150E+01,      /* K =  3 */
(PID.TID 0000.0001)                 1.141536465491959E+01,      /* K =  4 */
(PID.TID 0000.0001)                 1.103281361022341E+01,      /* K =  5 */
(PID.TID 0000.0001)                 1.049322813936271E+01,      /* K =  6 */
(PID.TID 0000.0001)                 9.896507635430076E+00,      /* K =  7 */
(PID.TID 0000.0001)                 9.268594041079588E+00,      /* K =  8 */
(PID.TID 0000.0001)                 8.622708964115972E+00,      /* K =  9 */
(PID.TID 0000.0001)                 7.958741047602176E+00,      /* K = 10 */
(PID.TID 0000.0001)                 7.274268101451823E+00,      /* K = 11 */
(PID.TID 0000.0001)                 6.564890963868441E+00,      /* K = 12 */
(PID.TID 0000.0001)                 5.826465551676219E+00,      /* K = 13 */
(PID.TID 0000.0001)                 5.088118928089688E+00,      /* K = 14 */
(PID.TID 0000.0001)                 4.265030003780834E+00,      /* K = 15 */
(PID.TID 0000.0001)                 3.454911288162397E+00,      /* K = 16 */
(PID.TID 0000.0001)                 2.761492015271100E+00,      /* K = 17 */
(PID.TID 0000.0001)                 2.182090670063620E+00,      /* K = 18 */
(PID.TID 0000.0001)                 1.698464270294853E+00,      /* K = 19 */
(PID.TID 0000.0001)                 1.295007900936525E+00,      /* K = 20 */
(PID.TID 0000.0001)                 9.596245715848598E-01,      /* K = 21 */
(PID.TID 0000.0001)                 6.998972365414204E-01,      /* K = 22 */
(PID.TID 0000.0001)                 5.011756370995382E-01,      /* K = 23 */
(PID.TID 0000.0001)                 3.576800017796575E-01,      /* K = 24 */
(PID.TID 0000.0001)                 2.547763471086900E-01,      /* K = 25 */
(PID.TID 0000.0001)                 1.813733661900887E-01,      /* K = 26 */
(PID.TID 0000.0001)                 1.290581062500962E-01,      /* K = 27 */
(PID.TID 0000.0001)                 9.174894349312027E-02,      /* K = 28 */
(PID.TID 0000.0001)                 6.521815105664294E-02,      /* K = 29 */
(PID.TID 0000.0001)                 4.639462235642103E-02,      /* K = 30 */
(PID.TID 0000.0001)                 3.303935584999983E-02,      /* K = 31 */
(PID.TID 0000.0001)                 2.345933864468484E-02,      /* K = 32 */
(PID.TID 0000.0001)                 1.659813339931500E-02,      /* K = 33 */
(PID.TID 0000.0001)                 1.163378561060039E-02,      /* K = 34 */
(PID.TID 0000.0001)                 8.043125940846432E-03,      /* K = 35 */
(PID.TID 0000.0001)                 5.470159986037118E-03,      /* K = 36 */
(PID.TID 0000.0001)                 3.588291235740063E-03,      /* K = 37 */
(PID.TID 0000.0001)                 2.218162576002980E-03,      /* K = 38 */
(PID.TID 0000.0001)                 1.222072755027447E-03,      /* K = 39 */
(PID.TID 0000.0001)                 4.928199252138053E-04,      /* K = 40 */
(PID.TID 0000.0001)                 1.000000000000000E+00       /* K = 41 */
(PID.TID 0000.0001)     ;
(PID.TID 0000.0001) dBdrRef = /* Vertical grad. of reference buoyancy [(m/s/r)^2] */
(PID.TID 0000.0001)                 0.000000000000000E+00,      /* K =  1 */
(PID.TID 0000.0001)                 1.604020822973574E-07,      /* K =  2 */
(PID.TID 0000.0001)                 1.152657334828159E-07,      /* K =  3 */
(PID.TID 0000.0001)                 1.669031556285689E-07,      /* K =  4 */
(PID.TID 0000.0001)                 1.849970092487192E-07,      /* K =  5 */
(PID.TID 0000.0001)                 2.131255278654788E-07,      /* K =  6 */
(PID.TID 0000.0001)                 2.133975089488317E-07,      /* K =  7 */
(PID.TID 0000.0001)                 2.240033290648494E-07,      /* K =  8 */
(PID.TID 0000.0001)                 3.605791205281923E-07,      /* K =  9 */
(PID.TID 0000.0001)                 3.249711693739214E-07,      /* K = 10 */
(PID.TID 0000.0001)                 4.968264748160709E-07,      /* K = 11 */
(PID.TID 0000.0001)                 5.493321563717310E-07,      /* K = 12 */
(PID.TID 0000.0001)                 8.111855094662242E-07,      /* K = 13 */
(PID.TID 0000.0001)                 9.832170654613536E-07,      /* K = 14 */
(PID.TID 0000.0001)                 2.148518611853123E-05,      /* K = 15 */
(PID.TID 0000.0001)                 3.947653715095805E-05,      /* K = 16 */
(PID.TID 0000.0001)                 6.201312132065765E-05,      /* K = 17 */
(PID.TID 0000.0001)                 9.944481613375718E-05,      /* K = 18 */
(PID.TID 0000.0001)                 1.636727910700920E-04,      /* K = 19 */
(PID.TID 0000.0001)                 2.821544362246682E-04,      /* K = 20 */
(PID.TID 0000.0001)                 5.126031726471478E-04,      /* K = 21 */
(PID.TID 0000.0001)                 9.530452880630475E-04,      /* K = 22 */
(PID.TID 0000.0001)                 1.823743954015231E-03,      /* K = 23 */
(PID.TID 0000.0001)                 3.613767119697066E-03,      /* K = 24 */
(PID.TID 0000.0001)                 7.225455170208292E-03,      /* K = 25 */
(PID.TID 0000.0001)                 1.408540478222500E-02,      /* K = 26 */
(PID.TID 0000.0001)                 2.763965637719824E-02,      /* K = 27 */
(PID.TID 0000.0001)                 5.525673556922916E-02,      /* K = 28 */
(PID.TID 0000.0001)                 1.083656335343325E-01,      /* K = 29 */
(PID.TID 0000.0001)                 2.153360247023156E-01,      /* K = 30 */
(PID.TID 0000.0001)                 4.219784869137519E-01,      /* K = 31 */
(PID.TID 0000.0001)                 8.436479381475670E-01,      /* K = 32 */
(PID.TID 0000.0001)                 1.689693689532025E+00,      /* K = 33 */
(PID.TID 0000.0001)                 3.418620864446730E+00,      /* K = 34 */
(PID.TID 0000.0001)                 7.147032742910993E+00,      /* K = 35 */
(PID.TID 0000.0001)                 1.549866203389236E+01,      /* K = 36 */
(PID.TID 0000.0001)                 3.580538197020447E+01,      /* K = 37 */
(PID.TID 0000.0001)                 9.356082595460353E+01,      /* K = 38 */
(PID.TID 0000.0001)                 3.075995834803803E+02,      /* K = 39 */
(PID.TID 0000.0001)                 1.913489549291166E+03       /* K = 40 */
(PID.TID 0000.0001)     ;
(PID.TID 0000.0001) rotateGrid = /* use rotated grid ( True/False ) */
(PID.TID 0000.0001)                   F
(PID.TID 0000.0001)     ;
(PID.TID 0000.0001) phiEuler = /* Euler angle, rotation about original z-coordinate [rad] */
(PID.TID 0000.0001)                 0.000000000000000E+00
(PID.TID 0000.0001)     ;
(PID.TID 0000.0001) thetaEuler = /* Euler angle, rotation about new x-coordinate [rad] */
(PID.TID 0000.0001)                 0.000000000000000E+00
(PID.TID 0000.0001)     ;
(PID.TID 0000.0001) psiEuler = /* Euler angle, rotation about new z-coordinate [rad] */
(PID.TID 0000.0001)                 0.000000000000000E+00
(PID.TID 0000.0001)     ;
(PID.TID 0000.0001) dxF =  /* dxF(:,1,:,1) ( units: m ) */
(PID.TID 0000.0001)                 1.202082051331828E+05,      /* I =  1 */
(PID.TID 0000.0001)                 1.563594089971120E+05,      /* I =  2 */
(PID.TID 0000.0001)                 1.835530058121492E+05,      /* I =  3 */
(PID.TID 0000.0001)      . . .
(PID.TID 0000.0001)                 2.978501920522794E+05,      /* I = 46 */
(PID.TID 0000.0001)                 3.000967749619962E+05,      /* I = 47 */
(PID.TID 0000.0001)                 3.012190981969055E+05,      /* I = 48 */
(PID.TID 0000.0001)                 3.012190981969055E+05,      /* I = 49 */
(PID.TID 0000.0001)                 3.000967749619962E+05,      /* I = 50 */
(PID.TID 0000.0001)                 2.978501920522794E+05,      /* I = 51 */
(PID.TID 0000.0001)      . . .
(PID.TID 0000.0001)                 1.835530058121492E+05,      /* I = 94 */
(PID.TID 0000.0001)                 1.563594089971120E+05,      /* I = 95 */
(PID.TID 0000.0001)                 1.202082051331828E+05,      /* I = 96 */
(PID.TID 0000.0001)                 1.202082051331828E+05,      /* I = 97 */
(PID.TID 0000.0001)                 1.563594089971120E+05,      /* I = 98 */
(PID.TID 0000.0001)                 1.835530058121492E+05,      /* I = 99 */
(PID.TID 0000.0001)      . . .
(PID.TID 0000.0001)                 2.978501920522794E+05,      /* I =142 */
(PID.TID 0000.0001)                 3.000967749619962E+05,      /* I =143 */
(PID.TID 0000.0001)                 3.012190981969055E+05,      /* I =144 */
(PID.TID 0000.0001)                 3.012190981969055E+05,      /* I =145 */
(PID.TID 0000.0001)                 3.000967749619962E+05,      /* I =146 */
(PID.TID 0000.0001)                 2.978501920522794E+05,      /* I =147 */
(PID.TID 0000.0001)      . . .
(PID.TID 0000.0001)                 1.835530058121492E+05,      /* I =190 */
(PID.TID 0000.0001)                 1.563594089971120E+05,      /* I =191 */
(PID.TID 0000.0001)                 1.202082051331828E+05       /* I =192 */
(PID.TID 0000.0001)     ;
(PID.TID 0000.0001) dxF =  /* dxF(1,:,1,:) ( units: m ) */
(PID.TID 0000.0001)                 1.202082051331828E+05,      /* J =  1 */
(PID.TID 0000.0001)                 1.572908084538706E+05,      /* J =  2 */
(PID.TID 0000.0001)                 1.840412227747703E+05,      /* J =  3 */
(PID.TID 0000.0001)                 2.048868197919576E+05,      /* J =  4 */
(PID.TID 0000.0001)                 2.220405216043041E+05,      /* J =  5 */
(PID.TID 0000.0001)                 2.365892017348392E+05,      /* J =  6 */
(PID.TID 0000.0001)                 2.491250781852558E+05,      /* J =  7 */
(PID.TID 0000.0001)                 2.599949918261881E+05,      /* J =  8 */
(PID.TID 0000.0001)                 2.694110134598581E+05,      /* J =  9 */
(PID.TID 0000.0001)                 2.775055554645015E+05,      /* J = 10 */
(PID.TID 0000.0001)                 2.843615645344775E+05,      /* J = 11 */
(PID.TID 0000.0001)                 2.900303768613599E+05,      /* J = 12 */
(PID.TID 0000.0001)                 2.945429307892709E+05,      /* J = 13 */
(PID.TID 0000.0001)                 2.979171143158405E+05,      /* J = 14 */
(PID.TID 0000.0001)                 3.001626787528886E+05,      /* J = 15 */
(PID.TID 0000.0001)     2 @  3.012844832048790E+05,             /* J = 16: 17 */
(PID.TID 0000.0001)                 3.001626787528886E+05,      /* J = 18 */
(PID.TID 0000.0001)                 2.979171143158405E+05,      /* J = 19 */
(PID.TID 0000.0001)                 2.945429307892709E+05,      /* J = 20 */
(PID.TID 0000.0001)                 2.900303768613599E+05,      /* J = 21 */
(PID.TID 0000.0001)                 2.843615645344775E+05,      /* J = 22 */
(PID.TID 0000.0001)                 2.775055554645015E+05,      /* J = 23 */
(PID.TID 0000.0001)                 2.694110134598581E+05,      /* J = 24 */
(PID.TID 0000.0001)                 2.599949918261881E+05,      /* J = 25 */
(PID.TID 0000.0001)                 2.491250781852558E+05,      /* J = 26 */
(PID.TID 0000.0001)                 2.365892017348392E+05,      /* J = 27 */
(PID.TID 0000.0001)                 2.220405216043041E+05,      /* J = 28 */
(PID.TID 0000.0001)                 2.048868197919576E+05,      /* J = 29 */
(PID.TID 0000.0001)                 1.840412227747703E+05,      /* J = 30 */
(PID.TID 0000.0001)                 1.572908084538706E+05,      /* J = 31 */
(PID.TID 0000.0001)                 1.202082051331828E+05       /* J = 32 */
(PID.TID 0000.0001)     ;
(PID.TID 0000.0001) dyF =  /* dyF(:,1,:,1) ( units: m ) */
(PID.TID 0000.0001)                 1.202082051331828E+05,      /* I =  1 */
(PID.TID 0000.0001)                 1.572908084538706E+05,      /* I =  2 */
(PID.TID 0000.0001)                 1.840412227747703E+05,      /* I =  3 */
(PID.TID 0000.0001)      . . .
(PID.TID 0000.0001)                 2.979171143158405E+05,      /* I = 46 */
(PID.TID 0000.0001)                 3.001626787528886E+05,      /* I = 47 */
(PID.TID 0000.0001)                 3.012844832048790E+05,      /* I = 48 */
(PID.TID 0000.0001)                 3.012844832048790E+05,      /* I = 49 */
(PID.TID 0000.0001)                 3.001626787528886E+05,      /* I = 50 */
(PID.TID 0000.0001)                 2.979171143158405E+05,      /* I = 51 */
(PID.TID 0000.0001)      . . .
(PID.TID 0000.0001)                 1.840412227747703E+05,      /* I = 94 */
(PID.TID 0000.0001)                 1.572908084538706E+05,      /* I = 95 */
(PID.TID 0000.0001)                 1.202082051331828E+05,      /* I = 96 */
(PID.TID 0000.0001)                 1.202082051331828E+05,      /* I = 97 */
(PID.TID 0000.0001)                 1.572908084538706E+05,      /* I = 98 */
(PID.TID 0000.0001)                 1.840412227747703E+05,      /* I = 99 */
(PID.TID 0000.0001)      . . .
(PID.TID 0000.0001)                 2.979171143158405E+05,      /* I =142 */
(PID.TID 0000.0001)                 3.001626787528886E+05,      /* I =143 */
(PID.TID 0000.0001)                 3.012844832048790E+05,      /* I =144 */
(PID.TID 0000.0001)                 3.012844832048790E+05,      /* I =145 */
(PID.TID 0000.0001)                 3.001626787528886E+05,      /* I =146 */
(PID.TID 0000.0001)                 2.979171143158405E+05,      /* I =147 */
(PID.TID 0000.0001)      . . .
(PID.TID 0000.0001)                 1.840412227747703E+05,      /* I =190 */
(PID.TID 0000.0001)                 1.572908084538706E+05,      /* I =191 */
(PID.TID 0000.0001)                 1.202082051331828E+05       /* I =192 */
(PID.TID 0000.0001)     ;
(PID.TID 0000.0001) dyF =  /* dyF(1,:,1,:) ( units: m ) */
(PID.TID 0000.0001)                 1.202082051331828E+05,      /* J =  1 */
(PID.TID 0000.0001)                 1.563594089971120E+05,      /* J =  2 */
(PID.TID 0000.0001)                 1.835530058121492E+05,      /* J =  3 */
(PID.TID 0000.0001)                 2.045883481718707E+05,      /* J =  4 */
(PID.TID 0000.0001)                 2.218350349844185E+05,      /* J =  5 */
(PID.TID 0000.0001)                 2.364352994647058E+05,      /* J =  6 */
(PID.TID 0000.0001)                 2.490022710862746E+05,      /* J =  7 */
(PID.TID 0000.0001)                 2.598919724358304E+05,      /* J =  8 */
(PID.TID 0000.0001)                 2.693210245495156E+05,      /* J =  9 */
(PID.TID 0000.0001)                 2.774243179696503E+05,      /* J = 10 */
(PID.TID 0000.0001)                 2.842862532064524E+05,      /* J = 11 */
(PID.TID 0000.0001)                 2.899590699694043E+05,      /* J = 12 */
(PID.TID 0000.0001)                 2.944742915095688E+05,      /* J = 13 */
(PID.TID 0000.0001)                 2.978501920522794E+05,      /* J = 14 */
(PID.TID 0000.0001)                 3.000967749619962E+05,      /* J = 15 */
(PID.TID 0000.0001)     2 @  3.012190981969055E+05,             /* J = 16: 17 */
(PID.TID 0000.0001)                 3.000967749619962E+05,      /* J = 18 */
(PID.TID 0000.0001)                 2.978501920522794E+05,      /* J = 19 */
(PID.TID 0000.0001)                 2.944742915095688E+05,      /* J = 20 */
(PID.TID 0000.0001)                 2.899590699694043E+05,      /* J = 21 */
(PID.TID 0000.0001)                 2.842862532064524E+05,      /* J = 22 */
(PID.TID 0000.0001)                 2.774243179696503E+05,      /* J = 23 */
(PID.TID 0000.0001)                 2.693210245495156E+05,      /* J = 24 */
(PID.TID 0000.0001)                 2.598919724358304E+05,      /* J = 25 */
(PID.TID 0000.0001)                 2.490022710862746E+05,      /* J = 26 */
(PID.TID 0000.0001)                 2.364352994647058E+05,      /* J = 27 */
(PID.TID 0000.0001)                 2.218350349844185E+05,      /* J = 28 */
(PID.TID 0000.0001)                 2.045883481718707E+05,      /* J = 29 */
(PID.TID 0000.0001)                 1.835530058121492E+05,      /* J = 30 */
(PID.TID 0000.0001)                 1.563594089971120E+05,      /* J = 31 */
(PID.TID 0000.0001)                 1.202082051331828E+05       /* J = 32 */
(PID.TID 0000.0001)     ;
(PID.TID 0000.0001) dxG =  /* dxG(:,1,:,1) ( units: m ) */
(PID.TID 0000.0001)                 1.009837800879055E+05,      /* I =  1 */
(PID.TID 0000.0001)                 1.534505834330338E+05,      /* I =  2 */
(PID.TID 0000.0001)                 1.823321598773926E+05,      /* I =  3 */
(PID.TID 0000.0001)      . . .
(PID.TID 0000.0001)                 2.977867909042096E+05,      /* I = 46 */
(PID.TID 0000.0001)                 3.000380090330854E+05,      /* I = 47 */
(PID.TID 0000.0001)                 3.011625828699101E+05,      /* I = 48 */
(PID.TID 0000.0001)                 3.011625828699101E+05,      /* I = 49 */
(PID.TID 0000.0001)                 3.000380090330854E+05,      /* I = 50 */
(PID.TID 0000.0001)                 2.977867909042096E+05,      /* I = 51 */
(PID.TID 0000.0001)      . . .
(PID.TID 0000.0001)                 1.823321598773926E+05,      /* I = 94 */
(PID.TID 0000.0001)                 1.534505834330338E+05,      /* I = 95 */
(PID.TID 0000.0001)                 1.009837800879055E+05,      /* I = 96 */
(PID.TID 0000.0001)                 1.009837800879055E+05,      /* I = 97 */
(PID.TID 0000.0001)                 1.534505834330338E+05,      /* I = 98 */
(PID.TID 0000.0001)                 1.823321598773926E+05,      /* I = 99 */
(PID.TID 0000.0001)      . . .
(PID.TID 0000.0001)                 2.977867909042096E+05,      /* I =142 */
(PID.TID 0000.0001)                 3.000380090330854E+05,      /* I =143 */
(PID.TID 0000.0001)                 3.011625828699101E+05,      /* I =144 */
(PID.TID 0000.0001)                 3.011625828699101E+05,      /* I =145 */
(PID.TID 0000.0001)                 3.000380090330854E+05,      /* I =146 */
(PID.TID 0000.0001)                 2.977867909042096E+05,      /* I =147 */
(PID.TID 0000.0001)      . . .
(PID.TID 0000.0001)                 1.823321598773926E+05,      /* I =190 */
(PID.TID 0000.0001)                 1.534505834330338E+05,      /* I =191 */
(PID.TID 0000.0001)                 1.009837800879055E+05       /* I =192 */
(PID.TID 0000.0001)     ;
(PID.TID 0000.0001) dxG =  /* dxG(1,:,1,:) ( units: m ) */
(PID.TID 0000.0001)                 1.009837800879055E+05,      /* J =  1 */
(PID.TID 0000.0001)                 1.403701524205398E+05,      /* J =  2 */
(PID.TID 0000.0001)                 1.716197227386011E+05,      /* J =  3 */
(PID.TID 0000.0001)                 1.950254041626018E+05,      /* J =  4 */
(PID.TID 0000.0001)                 2.138410773065497E+05,      /* J =  5 */
(PID.TID 0000.0001)                 2.295958105911512E+05,      /* J =  6 */
(PID.TID 0000.0001)                 2.430829951739083E+05,      /* J =  7 */
(PID.TID 0000.0001)                 2.547526806712889E+05,      /* J =  8 */
(PID.TID 0000.0001)                 2.648750305193301E+05,      /* J =  9 */
(PID.TID 0000.0001)                 2.736173771018112E+05,      /* J = 10 */
(PID.TID 0000.0001)                 2.810845823202647E+05,      /* J = 11 */
(PID.TID 0000.0001)                 2.873420591008078E+05,      /* J = 12 */
(PID.TID 0000.0001)                 2.924298293668651E+05,      /* J = 13 */
(PID.TID 0000.0001)                 2.963715635865306E+05,      /* J = 14 */
(PID.TID 0000.0001)                 2.991805843171258E+05,      /* J = 15 */
(PID.TID 0000.0001)                 3.008638765647886E+05,      /* J = 16 */
(PID.TID 0000.0001)                 3.014246674484008E+05,      /* J = 17 */
(PID.TID 0000.0001)                 3.008638765647886E+05,      /* J = 18 */
(PID.TID 0000.0001)                 2.991805843171258E+05,      /* J = 19 */
(PID.TID 0000.0001)                 2.963715635865306E+05,      /* J = 20 */
(PID.TID 0000.0001)                 2.924298293668651E+05,      /* J = 21 */
(PID.TID 0000.0001)                 2.873420591008078E+05,      /* J = 22 */
(PID.TID 0000.0001)                 2.810845823202647E+05,      /* J = 23 */
(PID.TID 0000.0001)                 2.736173771018112E+05,      /* J = 24 */
(PID.TID 0000.0001)                 2.648750305193301E+05,      /* J = 25 */
(PID.TID 0000.0001)                 2.547526806712889E+05,      /* J = 26 */
(PID.TID 0000.0001)                 2.430829951739083E+05,      /* J = 27 */
(PID.TID 0000.0001)                 2.295958105911512E+05,      /* J = 28 */
(PID.TID 0000.0001)                 2.138410773065497E+05,      /* J = 29 */
(PID.TID 0000.0001)                 1.950254041626018E+05,      /* J = 30 */
(PID.TID 0000.0001)                 1.716197227386011E+05,      /* J = 31 */
(PID.TID 0000.0001)                 1.403701524205398E+05       /* J = 32 */
(PID.TID 0000.0001)     ;
(PID.TID 0000.0001) dyG =  /* dyG(:,1,:,1) ( units: m ) */
(PID.TID 0000.0001)                 1.009837800879055E+05,      /* I =  1 */
(PID.TID 0000.0001)                 1.403701524205398E+05,      /* I =  2 */
(PID.TID 0000.0001)                 1.716197227386011E+05,      /* I =  3 */
(PID.TID 0000.0001)      . . .
(PID.TID 0000.0001)                 2.963715635865306E+05,      /* I = 46 */
(PID.TID 0000.0001)                 2.991805843171258E+05,      /* I = 47 */
(PID.TID 0000.0001)                 3.008638765647886E+05,      /* I = 48 */
(PID.TID 0000.0001)                 3.014246674484008E+05,      /* I = 49 */
(PID.TID 0000.0001)                 3.008638765647886E+05,      /* I = 50 */
(PID.TID 0000.0001)                 2.991805843171258E+05,      /* I = 51 */
(PID.TID 0000.0001)      . . .
(PID.TID 0000.0001)                 1.950254041626018E+05,      /* I = 94 */
(PID.TID 0000.0001)                 1.716197227386011E+05,      /* I = 95 */
(PID.TID 0000.0001)                 1.403701524205398E+05,      /* I = 96 */
(PID.TID 0000.0001)                 1.009837800879055E+05,      /* I = 97 */
(PID.TID 0000.0001)                 1.403701524205398E+05,      /* I = 98 */
(PID.TID 0000.0001)                 1.716197227386011E+05,      /* I = 99 */
(PID.TID 0000.0001)      . . .
(PID.TID 0000.0001)                 2.963715635865306E+05,      /* I =142 */
(PID.TID 0000.0001)                 2.991805843171258E+05,      /* I =143 */
(PID.TID 0000.0001)                 3.008638765647886E+05,      /* I =144 */
(PID.TID 0000.0001)                 3.014246674484008E+05,      /* I =145 */
(PID.TID 0000.0001)                 3.008638765647886E+05,      /* I =146 */
(PID.TID 0000.0001)                 2.991805843171258E+05,      /* I =147 */
(PID.TID 0000.0001)      . . .
(PID.TID 0000.0001)                 1.950254041626018E+05,      /* I =190 */
(PID.TID 0000.0001)                 1.716197227386011E+05,      /* I =191 */
(PID.TID 0000.0001)                 1.403701524205398E+05       /* I =192 */
(PID.TID 0000.0001)     ;
(PID.TID 0000.0001) dyG =  /* dyG(1,:,1,:) ( units: m ) */
(PID.TID 0000.0001)                 1.009837800879055E+05,      /* J =  1 */
(PID.TID 0000.0001)                 1.534505834330338E+05,      /* J =  2 */
(PID.TID 0000.0001)                 1.823321598773926E+05,      /* J =  3 */
(PID.TID 0000.0001)                 2.038999045536999E+05,      /* J =  4 */
(PID.TID 0000.0001)                 2.213884732245467E+05,      /* J =  5 */
(PID.TID 0000.0001)                 2.361211699596122E+05,      /* J =  6 */
(PID.TID 0000.0001)                 2.487693460283865E+05,      /* J =  7 */
(PID.TID 0000.0001)                 2.597126963772147E+05,      /* J =  8 */
(PID.TID 0000.0001)                 2.691790288994575E+05,      /* J =  9 */
(PID.TID 0000.0001)                 2.773091043277394E+05,      /* J = 10 */
(PID.TID 0000.0001)                 2.841906470085516E+05,      /* J = 11 */
(PID.TID 0000.0001)                 2.898778860929753E+05,      /* J = 12 */
(PID.TID 0000.0001)                 2.944035815526416E+05,      /* J = 13 */
(PID.TID 0000.0001)                 2.977867909042096E+05,      /* J = 14 */
(PID.TID 0000.0001)                 3.000380090330854E+05,      /* J = 15 */
(PID.TID 0000.0001)     2 @  3.011625828699101E+05,             /* J = 16: 17 */
(PID.TID 0000.0001)                 3.000380090330854E+05,      /* J = 18 */
(PID.TID 0000.0001)                 2.977867909042096E+05,      /* J = 19 */
(PID.TID 0000.0001)                 2.944035815526416E+05,      /* J = 20 */
(PID.TID 0000.0001)                 2.898778860929753E+05,      /* J = 21 */
(PID.TID 0000.0001)                 2.841906470085516E+05,      /* J = 22 */
(PID.TID 0000.0001)                 2.773091043277394E+05,      /* J = 23 */
(PID.TID 0000.0001)                 2.691790288994575E+05,      /* J = 24 */
(PID.TID 0000.0001)                 2.597126963772147E+05,      /* J = 25 */
(PID.TID 0000.0001)                 2.487693460283865E+05,      /* J = 26 */
(PID.TID 0000.0001)                 2.361211699596122E+05,      /* J = 27 */
(PID.TID 0000.0001)                 2.213884732245467E+05,      /* J = 28 */
(PID.TID 0000.0001)                 2.038999045536999E+05,      /* J = 29 */
(PID.TID 0000.0001)                 1.823321598773926E+05,      /* J = 30 */
(PID.TID 0000.0001)                 1.534505834330338E+05,      /* J = 31 */
(PID.TID 0000.0001)                 1.009837800879055E+05       /* J = 32 */
(PID.TID 0000.0001)     ;
(PID.TID 0000.0001) dxC =  /* dxC(:,1,:,1) ( units: m ) */
(PID.TID 0000.0001)                 1.135373000692312E+05,      /* I =  1 */
(PID.TID 0000.0001)                 1.391343389937106E+05,      /* I =  2 */
(PID.TID 0000.0001)                 1.709574999026266E+05,      /* I =  3 */
(PID.TID 0000.0001)      . . .
(PID.TID 0000.0001)                 2.963038832565530E+05,      /* I = 46 */
(PID.TID 0000.0001)                 2.991142470004740E+05,      /* I = 47 */
(PID.TID 0000.0001)                 3.007982711627968E+05,      /* I = 48 */
(PID.TID 0000.0001)                 3.013593857228136E+05,      /* I = 49 */
(PID.TID 0000.0001)                 3.007982711627968E+05,      /* I = 50 */
(PID.TID 0000.0001)                 2.991142470004740E+05,      /* I = 51 */
(PID.TID 0000.0001)      . . .
(PID.TID 0000.0001)                 1.946503699269892E+05,      /* I = 94 */
(PID.TID 0000.0001)                 1.709574999026266E+05,      /* I = 95 */
(PID.TID 0000.0001)                 1.391343389937106E+05,      /* I = 96 */
(PID.TID 0000.0001)                 1.135373000692312E+05,      /* I = 97 */
(PID.TID 0000.0001)                 1.391343389937106E+05,      /* I = 98 */
(PID.TID 0000.0001)                 1.709574999026266E+05,      /* I = 99 */
(PID.TID 0000.0001)      . . .
(PID.TID 0000.0001)                 2.963038832565530E+05,      /* I =142 */
(PID.TID 0000.0001)                 2.991142470004740E+05,      /* I =143 */
(PID.TID 0000.0001)                 3.007982711627968E+05,      /* I =144 */
(PID.TID 0000.0001)                 3.013593857228136E+05,      /* I =145 */
(PID.TID 0000.0001)                 3.007982711627968E+05,      /* I =146 */
(PID.TID 0000.0001)                 2.991142470004740E+05,      /* I =147 */
(PID.TID 0000.0001)      . . .
(PID.TID 0000.0001)                 1.946503699269892E+05,      /* I =190 */
(PID.TID 0000.0001)                 1.709574999026266E+05,      /* I =191 */
(PID.TID 0000.0001)                 1.391343389937106E+05       /* I =192 */
(PID.TID 0000.0001)     ;
(PID.TID 0000.0001) dxC =  /* dxC(1,:,1,:) ( units: m ) */
(PID.TID 0000.0001)                 1.135373000692312E+05,      /* J =  1 */
(PID.TID 0000.0001)                 1.549545757850771E+05,      /* J =  2 */
(PID.TID 0000.0001)                 1.829777599966776E+05,      /* J =  3 */
(PID.TID 0000.0001)                 2.042717761866506E+05,      /* J =  4 */
(PID.TID 0000.0001)                 2.216367828252819E+05,      /* J =  5 */
(PID.TID 0000.0001)                 2.363029564123586E+05,      /* J =  6 */
(PID.TID 0000.0001)                 2.489113743322025E+05,      /* J =  7 */
(PID.TID 0000.0001)                 2.598293319150326E+05,      /* J =  8 */
(PID.TID 0000.0001)                 2.692787333338535E+05,      /* J =  9 */
(PID.TID 0000.0001)                 2.773972106720365E+05,      /* J = 10 */
(PID.TID 0000.0001)                 2.842706922224557E+05,      /* J = 11 */
(PID.TID 0000.0001)                 2.899523122489403E+05,      /* J = 12 */
(PID.TID 0000.0001)                 2.944741346384699E+05,      /* J = 13 */
(PID.TID 0000.0001)                 2.978547649292580E+05,      /* J = 14 */
(PID.TID 0000.0001)                 3.001044073506459E+05,      /* J = 15 */
(PID.TID 0000.0001)     2 @  3.012281885409289E+05,             /* J = 16: 17 */
(PID.TID 0000.0001)                 3.001044073506459E+05,      /* J = 18 */
(PID.TID 0000.0001)                 2.978547649292580E+05,      /* J = 19 */
(PID.TID 0000.0001)                 2.944741346384699E+05,      /* J = 20 */
(PID.TID 0000.0001)                 2.899523122489403E+05,      /* J = 21 */
(PID.TID 0000.0001)                 2.842706922224557E+05,      /* J = 22 */
(PID.TID 0000.0001)                 2.773972106720365E+05,      /* J = 23 */
(PID.TID 0000.0001)                 2.692787333338535E+05,      /* J = 24 */
(PID.TID 0000.0001)                 2.598293319150326E+05,      /* J = 25 */
(PID.TID 0000.0001)                 2.489113743322025E+05,      /* J = 26 */
(PID.TID 0000.0001)                 2.363029564123586E+05,      /* J = 27 */
(PID.TID 0000.0001)                 2.216367828252819E+05,      /* J = 28 */
(PID.TID 0000.0001)                 2.042717761866506E+05,      /* J = 29 */
(PID.TID 0000.0001)                 1.829777599966776E+05,      /* J = 30 */
(PID.TID 0000.0001)                 1.549545757850771E+05,      /* J = 31 */
(PID.TID 0000.0001)                 1.135373000692312E+05       /* J = 32 */
(PID.TID 0000.0001)     ;
(PID.TID 0000.0001) dyC =  /* dyC(:,1,:,1) ( units: m ) */
(PID.TID 0000.0001)                 1.135373000692312E+05,      /* I =  1 */
(PID.TID 0000.0001)                 1.549545757850771E+05,      /* I =  2 */
(PID.TID 0000.0001)                 1.829777599966776E+05,      /* I =  3 */
(PID.TID 0000.0001)      . . .
(PID.TID 0000.0001)                 2.978547649292580E+05,      /* I = 46 */
(PID.TID 0000.0001)                 3.001044073506459E+05,      /* I = 47 */
(PID.TID 0000.0001)                 3.012281885409289E+05,      /* I = 48 */
(PID.TID 0000.0001)                 3.012281885409289E+05,      /* I = 49 */
(PID.TID 0000.0001)                 3.001044073506459E+05,      /* I = 50 */
(PID.TID 0000.0001)                 2.978547649292580E+05,      /* I = 51 */
(PID.TID 0000.0001)      . . .
(PID.TID 0000.0001)                 1.829777599966776E+05,      /* I = 94 */
(PID.TID 0000.0001)                 1.549545757850771E+05,      /* I = 95 */
(PID.TID 0000.0001)                 1.135373000692312E+05,      /* I = 96 */
(PID.TID 0000.0001)                 1.135373000692312E+05,      /* I = 97 */
(PID.TID 0000.0001)                 1.549545757850771E+05,      /* I = 98 */
(PID.TID 0000.0001)                 1.829777599966776E+05,      /* I = 99 */
(PID.TID 0000.0001)      . . .
(PID.TID 0000.0001)                 2.978547649292580E+05,      /* I =142 */
(PID.TID 0000.0001)                 3.001044073506459E+05,      /* I =143 */
(PID.TID 0000.0001)                 3.012281885409289E+05,      /* I =144 */
(PID.TID 0000.0001)                 3.012281885409289E+05,      /* I =145 */
(PID.TID 0000.0001)                 3.001044073506459E+05,      /* I =146 */
(PID.TID 0000.0001)                 2.978547649292580E+05,      /* I =147 */
(PID.TID 0000.0001)      . . .
(PID.TID 0000.0001)                 1.829777599966776E+05,      /* I =190 */
(PID.TID 0000.0001)                 1.549545757850771E+05,      /* I =191 */
(PID.TID 0000.0001)                 1.135373000692312E+05       /* I =192 */
(PID.TID 0000.0001)     ;
(PID.TID 0000.0001) dyC =  /* dyC(1,:,1,:) ( units: m ) */
(PID.TID 0000.0001)                 1.135373000692312E+05,      /* J =  1 */
(PID.TID 0000.0001)                 1.391343389937106E+05,      /* J =  2 */
(PID.TID 0000.0001)                 1.709574999026266E+05,      /* J =  3 */
(PID.TID 0000.0001)                 1.946503699269892E+05,      /* J =  4 */
(PID.TID 0000.0001)                 2.135964483342134E+05,      /* J =  5 */
(PID.TID 0000.0001)                 2.294195678257306E+05,      /* J =  6 */
(PID.TID 0000.0001)                 2.429464709770498E+05,      /* J =  7 */
(PID.TID 0000.0001)                 2.546408290696998E+05,      /* J =  8 */
(PID.TID 0000.0001)                 2.647791839299727E+05,      /* J =  9 */
(PID.TID 0000.0001)                 2.735321911346108E+05,      /* J = 10 */
(PID.TID 0000.0001)                 2.810065951609633E+05,      /* J = 11 */
(PID.TID 0000.0001)                 2.872689479506990E+05,      /* J = 12 */
(PID.TID 0000.0001)                 2.923599955312932E+05,      /* J = 13 */
(PID.TID 0000.0001)                 2.963038832565530E+05,      /* J = 14 */
(PID.TID 0000.0001)                 2.991142470004740E+05,      /* J = 15 */
(PID.TID 0000.0001)                 3.007982711627968E+05,      /* J = 16 */
(PID.TID 0000.0001)                 3.013593857228136E+05,      /* J = 17 */
(PID.TID 0000.0001)                 3.007982711627968E+05,      /* J = 18 */
(PID.TID 0000.0001)                 2.991142470004740E+05,      /* J = 19 */
(PID.TID 0000.0001)                 2.963038832565530E+05,      /* J = 20 */
(PID.TID 0000.0001)                 2.923599955312932E+05,      /* J = 21 */
(PID.TID 0000.0001)                 2.872689479506990E+05,      /* J = 22 */
(PID.TID 0000.0001)                 2.810065951609633E+05,      /* J = 23 */
(PID.TID 0000.0001)                 2.735321911346108E+05,      /* J = 24 */
(PID.TID 0000.0001)                 2.647791839299727E+05,      /* J = 25 */
(PID.TID 0000.0001)                 2.546408290696998E+05,      /* J = 26 */
(PID.TID 0000.0001)                 2.429464709770498E+05,      /* J = 27 */
(PID.TID 0000.0001)                 2.294195678257306E+05,      /* J = 28 */
(PID.TID 0000.0001)                 2.135964483342134E+05,      /* J = 29 */
(PID.TID 0000.0001)                 1.946503699269892E+05,      /* J = 30 */
(PID.TID 0000.0001)                 1.709574999026266E+05,      /* J = 31 */
(PID.TID 0000.0001)                 1.391343389937106E+05       /* J = 32 */
(PID.TID 0000.0001)     ;
(PID.TID 0000.0001) dxV =  /* dxV(:,1,:,1) ( units: m ) */
(PID.TID 0000.0001)                 8.015229982413632E+04,      /* I =  1 */
(PID.TID 0000.0001)                 1.333130744933864E+05,      /* I =  2 */
(PID.TID 0000.0001)                 1.691744868129062E+05,      /* I =  3 */
(PID.TID 0000.0001)      . . .
(PID.TID 0000.0001)                 2.962371870847826E+05,      /* I = 46 */
(PID.TID 0000.0001)                 2.990534755671296E+05,      /* I = 47 */
(PID.TID 0000.0001)                 3.007409169495504E+05,      /* I = 48 */
(PID.TID 0000.0001)                 3.013031486919771E+05,      /* I = 49 */
(PID.TID 0000.0001)                 3.007409169495504E+05,      /* I = 50 */
(PID.TID 0000.0001)                 2.990534755671296E+05,      /* I = 51 */
(PID.TID 0000.0001)      . . .
(PID.TID 0000.0001)                 1.937548202849060E+05,      /* I = 94 */
(PID.TID 0000.0001)                 1.691744868129062E+05,      /* I = 95 */
(PID.TID 0000.0001)                 1.333130744933864E+05,      /* I = 96 */
(PID.TID 0000.0001)                 8.015229982413632E+04,      /* I = 97 */
(PID.TID 0000.0001)                 1.333130744933864E+05,      /* I = 98 */
(PID.TID 0000.0001)                 1.691744868129062E+05,      /* I = 99 */
(PID.TID 0000.0001)      . . .
(PID.TID 0000.0001)                 2.962371870847826E+05,      /* I =142 */
(PID.TID 0000.0001)                 2.990534755671296E+05,      /* I =143 */
(PID.TID 0000.0001)                 3.007409169495504E+05,      /* I =144 */
(PID.TID 0000.0001)                 3.013031486919771E+05,      /* I =145 */
(PID.TID 0000.0001)                 3.007409169495504E+05,      /* I =146 */
(PID.TID 0000.0001)                 2.990534755671296E+05,      /* I =147 */
(PID.TID 0000.0001)      . . .
(PID.TID 0000.0001)                 1.937548202849060E+05,      /* I =190 */
(PID.TID 0000.0001)                 1.691744868129062E+05,      /* I =191 */
(PID.TID 0000.0001)                 1.333130744933864E+05       /* I =192 */
(PID.TID 0000.0001)     ;
(PID.TID 0000.0001) dxV =  /* dxV(1,:,1,:) ( units: m ) */
(PID.TID 0000.0001)                 8.015229982413632E+04,      /* J =  1 */
(PID.TID 0000.0001)                 1.362652340208229E+05,      /* J =  2 */
(PID.TID 0000.0001)                 1.701080315742101E+05,      /* J =  3 */
(PID.TID 0000.0001)                 1.942331448101592E+05,      /* J =  4 */
(PID.TID 0000.0001)                 2.133486626971531E+05,      /* J =  5 */
(PID.TID 0000.0001)                 2.292584591272880E+05,      /* J =  6 */
(PID.TID 0000.0001)                 2.428369969078989E+05,      /* J =  7 */
(PID.TID 0000.0001)                 2.545652950875683E+05,      /* J =  8 */
(PID.TID 0000.0001)                 2.647274964828301E+05,      /* J =  9 */
(PID.TID 0000.0001)                 2.734980225206389E+05,      /* J = 10 */
(PID.TID 0000.0001)                 2.809856491525217E+05,      /* J = 11 */
(PID.TID 0000.0001)                 2.872580915202295E+05,      /* J = 12 */
(PID.TID 0000.0001)                 2.923567890694162E+05,      /* J = 13 */
(PID.TID 0000.0001)                 2.963063101754721E+05,      /* J = 14 */
(PID.TID 0000.0001)                 2.991205495886625E+05,      /* J = 15 */
(PID.TID 0000.0001)                 3.008068453676764E+05,      /* J = 16 */
(PID.TID 0000.0001)                 3.013686170436881E+05,      /* J = 17 */
(PID.TID 0000.0001)                 3.008068453676764E+05,      /* J = 18 */
(PID.TID 0000.0001)                 2.991205495886625E+05,      /* J = 19 */
(PID.TID 0000.0001)                 2.963063101754721E+05,      /* J = 20 */
(PID.TID 0000.0001)                 2.923567890694162E+05,      /* J = 21 */
(PID.TID 0000.0001)                 2.872580915202295E+05,      /* J = 22 */
(PID.TID 0000.0001)                 2.809856491525217E+05,      /* J = 23 */
(PID.TID 0000.0001)                 2.734980225206389E+05,      /* J = 24 */
(PID.TID 0000.0001)                 2.647274964828301E+05,      /* J = 25 */
(PID.TID 0000.0001)                 2.545652950875683E+05,      /* J = 26 */
(PID.TID 0000.0001)                 2.428369969078989E+05,      /* J = 27 */
(PID.TID 0000.0001)                 2.292584591272880E+05,      /* J = 28 */
(PID.TID 0000.0001)                 2.133486626971531E+05,      /* J = 29 */
(PID.TID 0000.0001)                 1.942331448101592E+05,      /* J = 30 */
(PID.TID 0000.0001)                 1.701080315742101E+05,      /* J = 31 */
(PID.TID 0000.0001)                 1.362652340208229E+05       /* J = 32 */
(PID.TID 0000.0001)     ;
(PID.TID 0000.0001) dyU =  /* dyU(:,1,:,1) ( units: m ) */
(PID.TID 0000.0001)                 8.015229982413632E+04,      /* I =  1 */
(PID.TID 0000.0001)                 1.362652340208229E+05,      /* I =  2 */
(PID.TID 0000.0001)                 1.701080315742101E+05,      /* I =  3 */
(PID.TID 0000.0001)      . . .
(PID.TID 0000.0001)                 2.963063101754721E+05,      /* I = 46 */
(PID.TID 0000.0001)                 2.991205495886625E+05,      /* I = 47 */
(PID.TID 0000.0001)                 3.008068453676764E+05,      /* I = 48 */
(PID.TID 0000.0001)                 3.013686170436881E+05,      /* I = 49 */
(PID.TID 0000.0001)                 3.008068453676764E+05,      /* I = 50 */
(PID.TID 0000.0001)                 2.991205495886625E+05,      /* I = 51 */
(PID.TID 0000.0001)      . . .
(PID.TID 0000.0001)                 1.942331448101592E+05,      /* I = 94 */
(PID.TID 0000.0001)                 1.701080315742101E+05,      /* I = 95 */
(PID.TID 0000.0001)                 1.362652340208229E+05,      /* I = 96 */
(PID.TID 0000.0001)                 8.015229982413632E+04,      /* I = 97 */
(PID.TID 0000.0001)                 1.362652340208229E+05,      /* I = 98 */
(PID.TID 0000.0001)                 1.701080315742101E+05,      /* I = 99 */
(PID.TID 0000.0001)      . . .
(PID.TID 0000.0001)                 2.963063101754721E+05,      /* I =142 */
(PID.TID 0000.0001)                 2.991205495886625E+05,      /* I =143 */
(PID.TID 0000.0001)                 3.008068453676764E+05,      /* I =144 */
(PID.TID 0000.0001)                 3.013686170436881E+05,      /* I =145 */
(PID.TID 0000.0001)                 3.008068453676764E+05,      /* I =146 */
(PID.TID 0000.0001)                 2.991205495886625E+05,      /* I =147 */
(PID.TID 0000.0001)      . . .
(PID.TID 0000.0001)                 1.942331448101592E+05,      /* I =190 */
(PID.TID 0000.0001)                 1.701080315742101E+05,      /* I =191 */
(PID.TID 0000.0001)                 1.362652340208229E+05       /* I =192 */
(PID.TID 0000.0001)     ;
(PID.TID 0000.0001) dyU =  /* dyU(1,:,1,:) ( units: m ) */
(PID.TID 0000.0001)                 8.015229982413632E+04,      /* J =  1 */
(PID.TID 0000.0001)                 1.333130744933864E+05,      /* J =  2 */
(PID.TID 0000.0001)                 1.691744868129062E+05,      /* J =  3 */
(PID.TID 0000.0001)                 1.937548202849060E+05,      /* J =  4 */
(PID.TID 0000.0001)                 2.130490056267208E+05,      /* J =  5 */
(PID.TID 0000.0001)                 2.290479919481738E+05,      /* J =  6 */
(PID.TID 0000.0001)                 2.426774358027003E+05,      /* J =  7 */
(PID.TID 0000.0001)                 2.544372984215561E+05,      /* J =  8 */
(PID.TID 0000.0001)                 2.646201463834826E+05,      /* J =  9 */
(PID.TID 0000.0001)                 2.734046499619031E+05,      /* J = 10 */
(PID.TID 0000.0001)                 2.809019351693761E+05,      /* J = 11 */
(PID.TID 0000.0001)                 2.871811105274442E+05,      /* J = 12 */
(PID.TID 0000.0001)                 2.922844849381675E+05,      /* J = 13 */
(PID.TID 0000.0001)                 2.962371870847826E+05,      /* J = 14 */
(PID.TID 0000.0001)                 2.990534755671296E+05,      /* J = 15 */
(PID.TID 0000.0001)                 3.007409169495504E+05,      /* J = 16 */
(PID.TID 0000.0001)                 3.013031486919771E+05,      /* J = 17 */
(PID.TID 0000.0001)                 3.007409169495504E+05,      /* J = 18 */
(PID.TID 0000.0001)                 2.990534755671296E+05,      /* J = 19 */
(PID.TID 0000.0001)                 2.962371870847826E+05,      /* J = 20 */
(PID.TID 0000.0001)                 2.922844849381675E+05,      /* J = 21 */
(PID.TID 0000.0001)                 2.871811105274442E+05,      /* J = 22 */
(PID.TID 0000.0001)                 2.809019351693761E+05,      /* J = 23 */
(PID.TID 0000.0001)                 2.734046499619031E+05,      /* J = 24 */
(PID.TID 0000.0001)                 2.646201463834826E+05,      /* J = 25 */
(PID.TID 0000.0001)                 2.544372984215561E+05,      /* J = 26 */
(PID.TID 0000.0001)                 2.426774358027003E+05,      /* J = 27 */
(PID.TID 0000.0001)                 2.290479919481738E+05,      /* J = 28 */
(PID.TID 0000.0001)                 2.130490056267208E+05,      /* J = 29 */
(PID.TID 0000.0001)                 1.937548202849060E+05,      /* J = 30 */
(PID.TID 0000.0001)                 1.691744868129062E+05,      /* J = 31 */
(PID.TID 0000.0001)                 1.333130744933864E+05       /* J = 32 */
(PID.TID 0000.0001)     ;
(PID.TID 0000.0001) rA  =  /* rA (:,1,:,1) ( units: m^2 ) */
(PID.TID 0000.0001)                 1.549786705672200E+10,      /* I =  1 */
(PID.TID 0000.0001)                 2.487202533723944E+10,      /* I =  2 */
(PID.TID 0000.0001)                 3.392265412140352E+10,      /* I =  3 */
(PID.TID 0000.0001)      . . .
(PID.TID 0000.0001)                 8.871245486529788E+10,      /* I = 46 */
(PID.TID 0000.0001)                 9.005359372079962E+10,      /* I = 47 */
(PID.TID 0000.0001)                 9.072735712796770E+10,      /* I = 48 */
(PID.TID 0000.0001)                 9.072735712796770E+10,      /* I = 49 */
(PID.TID 0000.0001)                 9.005359372079962E+10,      /* I = 50 */
(PID.TID 0000.0001)                 8.871245486529788E+10,      /* I = 51 */
(PID.TID 0000.0001)      . . .
(PID.TID 0000.0001)                 3.392265412140352E+10,      /* I = 94 */
(PID.TID 0000.0001)                 2.487202533723944E+10,      /* I = 95 */
(PID.TID 0000.0001)                 1.549786705672200E+10,      /* I = 96 */
(PID.TID 0000.0001)                 1.549786705672200E+10,      /* I = 97 */
(PID.TID 0000.0001)                 2.487202533723944E+10,      /* I = 98 */
(PID.TID 0000.0001)                 3.392265412140352E+10,      /* I = 99 */
(PID.TID 0000.0001)      . . .
(PID.TID 0000.0001)                 8.871245486529788E+10,      /* I =142 */
(PID.TID 0000.0001)                 9.005359372079962E+10,      /* I =143 */
(PID.TID 0000.0001)                 9.072735712796770E+10,      /* I =144 */
(PID.TID 0000.0001)                 9.072735712796770E+10,      /* I =145 */
(PID.TID 0000.0001)                 9.005359372079962E+10,      /* I =146 */
(PID.TID 0000.0001)                 8.871245486529788E+10,      /* I =147 */
(PID.TID 0000.0001)      . . .
(PID.TID 0000.0001)                 3.392265412140352E+10,      /* I =190 */
(PID.TID 0000.0001)                 2.487202533723944E+10,      /* I =191 */
(PID.TID 0000.0001)                 1.549786705672200E+10       /* I =192 */
(PID.TID 0000.0001)     ;
(PID.TID 0000.0001) rA  =  /* rA (1,:,1,:) ( units: m^2 ) */
(PID.TID 0000.0001)                 1.549786705672200E+10,      /* J =  1 */
(PID.TID 0000.0001)                 2.487202533723944E+10,      /* J =  2 */
(PID.TID 0000.0001)                 3.392265412140352E+10,      /* J =  3 */
(PID.TID 0000.0001)                 4.200427377313133E+10,      /* J =  4 */
(PID.TID 0000.0001)                 4.931323764668228E+10,      /* J =  5 */
(PID.TID 0000.0001)                 5.597545074899419E+10,      /* J =  6 */
(PID.TID 0000.0001)                 6.205603937791459E+10,      /* J =  7 */
(PID.TID 0000.0001)                 6.758299971934573E+10,      /* J =  8 */
(PID.TID 0000.0001)                 7.256155653843707E+10,      /* J =  9 */
(PID.TID 0000.0001)                 7.698291833687604E+10,      /* J = 10 */
(PID.TID 0000.0001)                 8.083005486272011E+10,      /* J = 11 */
(PID.TID 0000.0001)                 8.408183191745641E+10,      /* J = 12 */
(PID.TID 0000.0001)                 8.671615787312848E+10,      /* J = 13 */
(PID.TID 0000.0001)                 8.871245486529788E+10,      /* J = 14 */
(PID.TID 0000.0001)                 9.005359372079964E+10,      /* J = 15 */
(PID.TID 0000.0001)     2 @  9.072735712796770E+10,             /* J = 16: 17 */
(PID.TID 0000.0001)                 9.005359372079964E+10,      /* J = 18 */
(PID.TID 0000.0001)                 8.871245486529788E+10,      /* J = 19 */
(PID.TID 0000.0001)                 8.671615787312848E+10,      /* J = 20 */
(PID.TID 0000.0001)                 8.408183191745641E+10,      /* J = 21 */
(PID.TID 0000.0001)                 8.083005486272011E+10,      /* J = 22 */
(PID.TID 0000.0001)                 7.698291833687604E+10,      /* J = 23 */
(PID.TID 0000.0001)                 7.256155653843707E+10,      /* J = 24 */
(PID.TID 0000.0001)                 6.758299971934573E+10,      /* J = 25 */
(PID.TID 0000.0001)                 6.205603937791459E+10,      /* J = 26 */
(PID.TID 0000.0001)                 5.597545074899419E+10,      /* J = 27 */
(PID.TID 0000.0001)                 4.931323764668228E+10,      /* J = 28 */
(PID.TID 0000.0001)                 4.200427377313133E+10,      /* J = 29 */
(PID.TID 0000.0001)                 3.392265412140352E+10,      /* J = 30 */
(PID.TID 0000.0001)                 2.487202533723944E+10,      /* J = 31 */
(PID.TID 0000.0001)                 1.549786705672200E+10       /* J = 32 */
(PID.TID 0000.0001)     ;
(PID.TID 0000.0001) rAw =  /* rAw(:,1,:,1) ( units: m^2 ) */
(PID.TID 0000.0001)                 1.146542574196578E+10,      /* I =  1 */
(PID.TID 0000.0001)                 1.953030837147821E+10,      /* I =  2 */
(PID.TID 0000.0001)                 2.933967873337320E+10,      /* I =  3 */
(PID.TID 0000.0001)      . . .
(PID.TID 0000.0001)                 8.781604517750543E+10,      /* I = 46 */
(PID.TID 0000.0001)                 8.948917519517891E+10,      /* I = 47 */
(PID.TID 0000.0001)                 9.049933392602551E+10,      /* I = 48 */
(PID.TID 0000.0001)                 9.083715262395341E+10,      /* I = 49 */
(PID.TID 0000.0001)                 9.049933392602551E+10,      /* I = 50 */
(PID.TID 0000.0001)                 8.948917519517891E+10,      /* I = 51 */
(PID.TID 0000.0001)      . . .
(PID.TID 0000.0001)                 3.796176706541101E+10,      /* I = 94 */
(PID.TID 0000.0001)                 2.933967873337320E+10,      /* I = 95 */
(PID.TID 0000.0001)                 1.953030837147821E+10,      /* I = 96 */
(PID.TID 0000.0001)                 1.146542574196578E+10,      /* I = 97 */
(PID.TID 0000.0001)                 1.953030837147821E+10,      /* I = 98 */
(PID.TID 0000.0001)                 2.933967873337320E+10,      /* I = 99 */
(PID.TID 0000.0001)      . . .
(PID.TID 0000.0001)                 8.781604517750543E+10,      /* I =142 */
(PID.TID 0000.0001)                 8.948917519517891E+10,      /* I =143 */
(PID.TID 0000.0001)                 9.049933392602551E+10,      /* I =144 */
(PID.TID 0000.0001)                 9.083715262395341E+10,      /* I =145 */
(PID.TID 0000.0001)                 9.049933392602551E+10,      /* I =146 */
(PID.TID 0000.0001)                 8.948917519517891E+10,      /* I =147 */
(PID.TID 0000.0001)      . . .
(PID.TID 0000.0001)                 3.796176706541101E+10,      /* I =190 */
(PID.TID 0000.0001)                 2.933967873337320E+10,      /* I =191 */
(PID.TID 0000.0001)                 1.953030837147821E+10       /* I =192 */
(PID.TID 0000.0001)     ;
(PID.TID 0000.0001) rAw =  /* rAw(1,:,1,:) ( units: m^2 ) */
(PID.TID 0000.0001)                 1.146542574196578E+10,      /* J =  1 */
(PID.TID 0000.0001)                 2.377787005983833E+10,      /* J =  2 */
(PID.TID 0000.0001)                 3.336273018972140E+10,      /* J =  3 */
(PID.TID 0000.0001)                 4.165099566747280E+10,      /* J =  4 */
(PID.TID 0000.0001)                 4.906782896008959E+10,      /* J =  5 */
(PID.TID 0000.0001)                 5.579613053300137E+10,      /* J =  6 */
(PID.TID 0000.0001)                 6.192151981164894E+10,      /* J =  7 */
(PID.TID 0000.0001)                 6.748097638954340E+10,      /* J =  8 */
(PID.TID 0000.0001)                 7.248418794208269E+10,      /* J =  9 */
(PID.TID 0000.0001)                 7.692477203447566E+10,      /* J = 10 */
(PID.TID 0000.0001)                 8.078707194826852E+10,      /* J = 11 */
(PID.TID 0000.0001)                 8.405076334249313E+10,      /* J = 12 */
(PID.TID 0000.0001)                 8.669423991218034E+10,      /* J = 13 */
(PID.TID 0000.0001)                 8.869721460381146E+10,      /* J = 14 */
(PID.TID 0000.0001)                 9.004272888354184E+10,      /* J = 15 */
(PID.TID 0000.0001)     2 @  9.071865929421040E+10,             /* J = 16: 17 */
(PID.TID 0000.0001)                 9.004272888354184E+10,      /* J = 18 */
(PID.TID 0000.0001)                 8.869721460381146E+10,      /* J = 19 */
(PID.TID 0000.0001)                 8.669423991218034E+10,      /* J = 20 */
(PID.TID 0000.0001)                 8.405076334249313E+10,      /* J = 21 */
(PID.TID 0000.0001)                 8.078707194826852E+10,      /* J = 22 */
(PID.TID 0000.0001)                 7.692477203447566E+10,      /* J = 23 */
(PID.TID 0000.0001)                 7.248418794208269E+10,      /* J = 24 */
(PID.TID 0000.0001)                 6.748097638954340E+10,      /* J = 25 */
(PID.TID 0000.0001)                 6.192151981164894E+10,      /* J = 26 */
(PID.TID 0000.0001)                 5.579613053300137E+10,      /* J = 27 */
(PID.TID 0000.0001)                 4.906782896008959E+10,      /* J = 28 */
(PID.TID 0000.0001)                 4.165099566747280E+10,      /* J = 29 */
(PID.TID 0000.0001)                 3.336273018972140E+10,      /* J = 30 */
(PID.TID 0000.0001)                 2.377787005983833E+10,      /* J = 31 */
(PID.TID 0000.0001)                 1.146542574196578E+10       /* J = 32 */
(PID.TID 0000.0001)     ;
(PID.TID 0000.0001) rAs =  /* rAs(:,1,:,1) ( units: m^2 ) */
(PID.TID 0000.0001)                 1.146542574196578E+10,      /* I =  1 */
(PID.TID 0000.0001)                 2.377787005983833E+10,      /* I =  2 */
(PID.TID 0000.0001)                 3.336273018972140E+10,      /* I =  3 */
(PID.TID 0000.0001)      . . .
(PID.TID 0000.0001)                 8.869721460381146E+10,      /* I = 46 */
(PID.TID 0000.0001)                 9.004272888354184E+10,      /* I = 47 */
(PID.TID 0000.0001)                 9.071865929421040E+10,      /* I = 48 */
(PID.TID 0000.0001)                 9.071865929421040E+10,      /* I = 49 */
(PID.TID 0000.0001)                 9.004272888354184E+10,      /* I = 50 */
(PID.TID 0000.0001)                 8.869721460381146E+10,      /* I = 51 */
(PID.TID 0000.0001)      . . .
(PID.TID 0000.0001)                 3.336273018972140E+10,      /* I = 94 */
(PID.TID 0000.0001)                 2.377787005983833E+10,      /* I = 95 */
(PID.TID 0000.0001)                 1.146542574196578E+10,      /* I = 96 */
(PID.TID 0000.0001)                 1.146542574196578E+10,      /* I = 97 */
(PID.TID 0000.0001)                 2.377787005983833E+10,      /* I = 98 */
(PID.TID 0000.0001)                 3.336273018972140E+10,      /* I = 99 */
(PID.TID 0000.0001)      . . .
(PID.TID 0000.0001)                 8.869721460381146E+10,      /* I =142 */
(PID.TID 0000.0001)                 9.004272888354184E+10,      /* I =143 */
(PID.TID 0000.0001)                 9.071865929421040E+10,      /* I =144 */
(PID.TID 0000.0001)                 9.071865929421040E+10,      /* I =145 */
(PID.TID 0000.0001)                 9.004272888354184E+10,      /* I =146 */
(PID.TID 0000.0001)                 8.869721460381146E+10,      /* I =147 */
(PID.TID 0000.0001)      . . .
(PID.TID 0000.0001)                 3.336273018972140E+10,      /* I =190 */
(PID.TID 0000.0001)                 2.377787005983833E+10,      /* I =191 */
(PID.TID 0000.0001)                 1.146542574196578E+10       /* I =192 */
(PID.TID 0000.0001)     ;
(PID.TID 0000.0001) rAs =  /* rAs(1,:,1,:) ( units: m^2 ) */
(PID.TID 0000.0001)                 1.146542574196578E+10,      /* J =  1 */
(PID.TID 0000.0001)                 1.953030837147821E+10,      /* J =  2 */
(PID.TID 0000.0001)                 2.933967873337320E+10,      /* J =  3 */
(PID.TID 0000.0001)                 3.796176706541101E+10,      /* J =  4 */
(PID.TID 0000.0001)                 4.567569462064098E+10,      /* J =  5 */
(PID.TID 0000.0001)                 5.267377164042021E+10,      /* J =  6 */
(PID.TID 0000.0001)                 5.905615583203223E+10,      /* J =  7 */
(PID.TID 0000.0001)                 6.487043381386549E+10,      /* J =  8 */
(PID.TID 0000.0001)                 7.013339442433482E+10,      /* J =  9 */
(PID.TID 0000.0001)                 7.484316069116351E+10,      /* J = 10 */
(PID.TID 0000.0001)                 7.898662143005907E+10,      /* J = 11 */
(PID.TID 0000.0001)                 8.254445101987663E+10,      /* J = 12 */
(PID.TID 0000.0001)                 8.549478360691351E+10,      /* J = 13 */
(PID.TID 0000.0001)                 8.781604517750543E+10,      /* J = 14 */
(PID.TID 0000.0001)                 8.948917519517891E+10,      /* J = 15 */
(PID.TID 0000.0001)                 9.049933392602551E+10,      /* J = 16 */
(PID.TID 0000.0001)                 9.083715262395341E+10,      /* J = 17 */
(PID.TID 0000.0001)                 9.049933392602551E+10,      /* J = 18 */
(PID.TID 0000.0001)                 8.948917519517891E+10,      /* J = 19 */
(PID.TID 0000.0001)                 8.781604517750543E+10,      /* J = 20 */
(PID.TID 0000.0001)                 8.549478360691351E+10,      /* J = 21 */
(PID.TID 0000.0001)                 8.254445101987663E+10,      /* J = 22 */
(PID.TID 0000.0001)                 7.898662143005907E+10,      /* J = 23 */
(PID.TID 0000.0001)                 7.484316069116351E+10,      /* J = 24 */
(PID.TID 0000.0001)                 7.013339442433482E+10,      /* J = 25 */
(PID.TID 0000.0001)                 6.487043381386549E+10,      /* J = 26 */
(PID.TID 0000.0001)                 5.905615583203223E+10,      /* J = 27 */
(PID.TID 0000.0001)                 5.267377164042021E+10,      /* J = 28 */
(PID.TID 0000.0001)                 4.567569462064098E+10,      /* J = 29 */
(PID.TID 0000.0001)                 3.796176706541101E+10,      /* J = 30 */
(PID.TID 0000.0001)                 2.933967873337320E+10,      /* J = 31 */
(PID.TID 0000.0001)                 1.953030837147821E+10       /* J = 32 */
(PID.TID 0000.0001)     ;
(PID.TID 0000.0001) globalArea = /* Integrated horizontal Area (m^2) */
(PID.TID 0000.0001)                 5.098642104278459E+14
(PID.TID 0000.0001)     ;
(PID.TID 0000.0001) hasWetCSCorners = /* Domain contains CS corners (True/False) */
(PID.TID 0000.0001)                   T
(PID.TID 0000.0001)     ;
(PID.TID 0000.0001) // =======================================================
(PID.TID 0000.0001) // End of Model config. summary
(PID.TID 0000.0001) // =======================================================
(PID.TID 0000.0001) 
(PID.TID 0000.0001) == Packages configuration : Check & print summary ==
(PID.TID 0000.0001) 
(PID.TID 0000.0001) ATM_PHYS_CHECK: #define ALLOW_ATM_PHYS
(PID.TID 0000.0001) atmPhys_addTendT = /* apply Atm-Phys tendency to Temperature Eq.*/
(PID.TID 0000.0001)                   T
(PID.TID 0000.0001)     ;
(PID.TID 0000.0001) atmPhys_addTendS = /* apply Atm-Phys tendency to Salinity Eq.*/
(PID.TID 0000.0001)                   T
(PID.TID 0000.0001)     ;
(PID.TID 0000.0001) atmPhys_addTendU = /* apply Atm-Phys tendency to U momentum Eq.*/
(PID.TID 0000.0001)                   T
(PID.TID 0000.0001)     ;
(PID.TID 0000.0001) atmPhys_addTendV = /* apply Atm-Phys tendency to V momentum Eq.*/
(PID.TID 0000.0001)                   T
(PID.TID 0000.0001)     ;
(PID.TID 0000.0001) atmPhys_stepSST = /* step forward SST field */
(PID.TID 0000.0001)                   F
(PID.TID 0000.0001)     ;
(PID.TID 0000.0001) atmPhys_dampUVfac = /* U,V danping coefficient (1/s) */
(PID.TID 0000.0001)    21 @  0.000000000000000E+00,             /* K =  1: 21 */
(PID.TID 0000.0001)                 3.935185185185185E-07,      /* K = 22 */
(PID.TID 0000.0001)                 4.212962962962963E-07,      /* K = 23 */
(PID.TID 0000.0001)                 4.513888888888889E-07,      /* K = 24 */
(PID.TID 0000.0001)                 4.849537037037037E-07,      /* K = 25 */
(PID.TID 0000.0001)                 5.219907407407407E-07,      /* K = 26 */
(PID.TID 0000.0001)                 5.509259259259259E-07,      /* K = 27 */
(PID.TID 0000.0001)                 5.787037037037037E-07,      /* K = 28 */
(PID.TID 0000.0001)                 6.087962962962963E-07,      /* K = 29 */
(PID.TID 0000.0001)                 6.435185185185185E-07,      /* K = 30 */
(PID.TID 0000.0001)                 6.805555555555555E-07,      /* K = 31 */
(PID.TID 0000.0001)                 7.233796296296296E-07,      /* K = 32 */
(PID.TID 0000.0001)                 7.719907407407406E-07,      /* K = 33 */
(PID.TID 0000.0001)                 8.263888888888889E-07,      /* K = 34 */
(PID.TID 0000.0001)                 8.900462962962962E-07,      /* K = 35 */
(PID.TID 0000.0001)                 9.641203703703704E-07,      /* K = 36 */
(PID.TID 0000.0001)                 1.157407407407407E-06,      /* K = 37 */
(PID.TID 0000.0001)                 2.893518518518518E-06,      /* K = 38 */
(PID.TID 0000.0001)                 6.502314814814815E-06,      /* K = 39 */
(PID.TID 0000.0001)                 7.233796296296297E-06       /* K = 40 */
(PID.TID 0000.0001)     ;
(PID.TID 0000.0001) atmPhys_sstFile = /* SST input file */
(PID.TID 0000.0001)               'SST_symEx3.bin'
(PID.TID 0000.0001)     ;
(PID.TID 0000.0001) atmPhys_qFlxFile = /* Q-flux input file */
(PID.TID 0000.0001)               ''
(PID.TID 0000.0001)     ;
(PID.TID 0000.0001) atmPhys_mxldFile = /* Mixed-Layer Depth inp. file */
(PID.TID 0000.0001)               ''
(PID.TID 0000.0001)     ;
(PID.TID 0000.0001) atmPhys_albedoFile = /* Albedo input file */
(PID.TID 0000.0001)               ''
(PID.TID 0000.0001)     ;
(PID.TID 0000.0001) 
(PID.TID 0000.0001) GAD_CHECK: #define ALLOW_GENERIC_ADVDIFF
(PID.TID 0000.0001) // =======================================================
(PID.TID 0000.0001) // Check Model config. (CONFIG_CHECK):
(PID.TID 0000.0001) // CONFIG_CHECK : Normal End
(PID.TID 0000.0001) // =======================================================
(PID.TID 0000.0001) 
(PID.TID 0000.0001)  MDS_READ_META: opening file: pickup.0000129600.meta
(PID.TID 0000.0001)  nRecords = 323 ; filePrec =  64 ; fileIter =    129600
(PID.TID 0000.0001)     nDims =   2 , dims:
(PID.TID 0000.0001)    1: 192   1 192
(PID.TID 0000.0001)    2:  32   1  32
(PID.TID 0000.0001)     nFlds =  11 , nFl3D =   8 , fields:
(PID.TID 0000.0001)  >Uvel    < >Vvel    < >Theta   < >Salt    < >GuNm1   < >GvNm1   < >GtNm1   < >PhiHyd  < >EtaN    < >dEtaHdt < >EtaH    <
(PID.TID 0000.0001) missingVal=  1.00000000000000E+00 ; nTimRec =   1 , timeList:
(PID.TID 0000.0001)   3.110400000000E+07
(PID.TID 0000.0001) READ_MFLDS_3D_RL: read field: "Uvel    ", #   1 in fldList, rec=   1
(PID.TID 0000.0001)  MDS_READ_FIELD: opening global file: pickup.0000129600.data
(PID.TID 0000.0001) READ_MFLDS_3D_RL: read field: "Vvel    ", #   2 in fldList, rec=   2
(PID.TID 0000.0001)  MDS_READ_FIELD: opening global file: pickup.0000129600.data
(PID.TID 0000.0001) READ_MFLDS_3D_RL: read field: "Theta   ", #   3 in fldList, rec=   3
(PID.TID 0000.0001)  MDS_READ_FIELD: opening global file: pickup.0000129600.data
(PID.TID 0000.0001) READ_MFLDS_3D_RL: read field: "Salt    ", #   4 in fldList, rec=   4
(PID.TID 0000.0001)  MDS_READ_FIELD: opening global file: pickup.0000129600.data
(PID.TID 0000.0001) READ_MFLDS_3D_RL: read field: "GuNm1   ", #   5 in fldList, rec=   5
(PID.TID 0000.0001)  MDS_READ_FIELD: opening global file: pickup.0000129600.data
(PID.TID 0000.0001) READ_MFLDS_3D_RL: read field: "GvNm1   ", #   6 in fldList, rec=   6
(PID.TID 0000.0001)  MDS_READ_FIELD: opening global file: pickup.0000129600.data
(PID.TID 0000.0001) READ_MFLDS_3D_RL: read field: "GtNm1   ", #   7 in fldList, rec=   7
(PID.TID 0000.0001)  MDS_READ_FIELD: opening global file: pickup.0000129600.data
(PID.TID 0000.0001) READ_MFLDS_3D_RL: read field: "PhiHyd  ", #   8 in fldList, rec=   8
(PID.TID 0000.0001)  MDS_READ_FIELD: opening global file: pickup.0000129600.data
(PID.TID 0000.0001) READ_MFLDS_3D_RL: read field: "EtaN    ", #   9 in fldList, rec= 321
(PID.TID 0000.0001)  MDS_READ_FIELD: opening global file: pickup.0000129600.data
(PID.TID 0000.0001) READ_MFLDS_3D_RL: read field: "dEtaHdt ", #  10 in fldList, rec= 322
(PID.TID 0000.0001)  MDS_READ_FIELD: opening global file: pickup.0000129600.data
(PID.TID 0000.0001) READ_MFLDS_3D_RL: read field: "EtaH    ", #  11 in fldList, rec= 323
(PID.TID 0000.0001)  MDS_READ_FIELD: opening global file: pickup.0000129600.data
(PID.TID 0000.0001) READ_MFLDS_CHECK: - normal end ; reset MFLDS file-name: pickup.0000129600
(PID.TID 0000.0001)  write diagnostics summary to file ioUnit:      6
Iter.Nb:    129600 ; Time(s):  3.1104000000000E+07
------------------------------------------------------------------------
2D/3D diagnostics: Number of lists:     5
------------------------------------------------------------------------
listId=    1 ; file name: surfDiag
 nFlds, nActive,       freq     &     phase        , nLev               
   17  |   17  |   7776000.000000         0.000000 |   1
 levels:   1
 diag# | name   |   ipt  |  iMate | kLev|   count |   mate.C|           
    23 |ETAN    |      1 |      0 |   1 |       0 |
    24 |ETANSQ  |      2 |      0 |   1 |       0 |
    25 |DETADT2 |      3 |      0 |   1 |       0 |
    73 |PHI_SURF|      4 |      0 |   1 |       0 |
   202 |AtPhCnvP|      5 |      0 |   1 |       0 |
   203 |AtPhLscP|      6 |      0 |   1 |       0 |
   221 |AtPhCAPE|      7 |      0 |   1 |       0 |
   217 |AtPhSens|      8 |      0 |   1 |       0 |
   218 |AtPhEvap|      9 |      0 |   1 |       0 |
   219 |AtPhTauX|     10 |     11 |   1 |       0 |       0 |
   220 |AtPhTauY|     11 |     10 |   1 |       0 |       0 |
   195 |AtPh_SST|     12 |      0 |   1 |       0 |
   211 |AtPhNTSR|     13 |      0 |   1 |       0 |
   212 |AtPhOLR |     14 |      0 |   1 |       0 |
   214 |AtPhNSSR|     15 |      0 |   1 |       0 |
   215 |AtPhDSLR|     16 |      0 |   1 |       0 |
   216 |AtPhUSLR|     17 |      0 |   1 |       0 |
------------------------------------------------------------------------
listId=    2 ; file name: dynDiag
 nFlds, nActive,       freq     &     phase        , nLev               
   21  |   21  |   7776000.000000         0.000000 |  40
 levels:   1   2   3   4   5   6   7   8   9  10  11  12  13  14  15  16  17  18  19  20  21  22  23  24  25
 levels:  26  27  28  29  30  31  32  33  34  35  36  37  38  39  40
 diag# | name   |   ipt  |  iMate | kLev|   count |   mate.C|           
    29 |UVEL    |     18 |     58 |  40 |       0 |       0 |
    30 |VVEL    |     58 |     18 |  40 |       0 |       0 |
    31 |WVEL    |     98 |      0 |  40 |       0 |
    26 |THETA   |    138 |      0 |  40 |       0 |
    27 |SALT    |    178 |      0 |  40 |       0 |
    34 |UVELSQ  |    218 |    258 |  40 |       0 |       0 |
    35 |VVELSQ  |    258 |    218 |  40 |       0 |       0 |
    36 |WVELSQ  |    298 |      0 |  40 |       0 |
    32 |THETASQ |    338 |      0 |  40 |       0 |
    33 |SALTSQ  |    378 |      0 |  40 |       0 |
    43 |UVELMASS|    418 |    458 |  40 |       0 |       0 |
    44 |VVELMASS|    458 |    418 |  40 |       0 |       0 |
    37 |UE_VEL_C|    498 |    538 |  40 |       0 |       0 |
    38 |VN_VEL_C|    538 |    498 |  40 |       0 |       0 |
    39 |UV_VEL_C|    578 |    578 |  40 |       0 |       0 |
    41 |WU_VEL  |    618 |      0 |  40 |       0 |
    42 |WV_VEL  |    658 |      0 |  40 |       0 |
    54 |UVELTH  |    698 |    738 |  40 |       0 |       0 |
    55 |VVELTH  |    738 |    698 |  40 |       0 |       0 |
    56 |WVELTH  |    778 |      0 |  40 |       0 |
    28 |RELHUM  |    818 |      0 |  40 |       0 |
------------------------------------------------------------------------
listId=    3 ; file name: physDiag
 nFlds, nActive,       freq     &     phase        , nLev               
   11  |   11  |   7776000.000000         0.000000 |  40
 levels:   1   2   3   4   5   6   7   8   9  10  11  12  13  14  15  16  17  18  19  20  21  22  23  24  25
 levels:  26  27  28  29  30  31  32  33  34  35  36  37  38  39  40
 diag# | name   |   ipt  |  iMate | kLev|   count |   mate.C|           
   196 |AtPhdTdt|    858 |      0 |  40 |       0 |
   197 |AtPhdQdt|    898 |      0 |  40 |       0 |
   198 |AtPhdUdt|    938 |    978 |  40 |       0 |       0 |
   199 |AtPhdVdt|    978 |    938 |  40 |       0 |       0 |
   232 |AtPhDisH|   1018 |      0 |  40 |       0 |
   100 |HeatDiss|   1058 |      0 |  40 |       0 |
    99 |MoistCor|   1098 |      0 |  40 |       0 |
   194 |SHAP_dKE|   1138 |      0 |  40 |       0 |
   205 |AtPhdTrd|   1178 |      0 |  40 |       0 |
   204 |AtPhdTlc|   1218 |      0 |  40 |       0 |
   229 |AtPhdTcv|   1258 |      0 |  40 |       0 |
------------------------------------------------------------------------
listId=    4 ; file name: radDiag
 nFlds, nActive,       freq     &     phase        , nLev               
    4  |    4  |   7776000.000000         0.000000 |  41
 levels:   1   2   3   4   5   6   7   8   9  10  11  12  13  14  15  16  17  18  19  20  21  22  23  24  25
 levels:  26  27  28  29  30  31  32  33  34  35  36  37  38  39  40  41
 diag# | name   |   ipt  |  iMate | kLev|   count |   mate.C|           
   206 |AtPhNSR |   1298 |      0 |  41 |       0 |
   207 |AtPhNLR |   1339 |      0 |  41 |       0 |
   208 |AtPhDSR |   1380 |      0 |  41 |       0 |
   209 |AtPhDLR |   1421 |      0 |  41 |       0 |
------------------------------------------------------------------------
listId=    5 ; file name: momDiag
 nFlds, nActive,       freq     &     phase        , nLev               
   18  |   18  |  15552000.000000         0.000000 |  40
 levels:   1   2   3   4   5   6   7   8   9  10  11  12  13  14  15  16  17  18  19  20  21  22  23  24  25
 levels:  26  27  28  29  30  31  32  33  34  35  36  37  38  39  40
 diag# | name   |   ipt  |  iMate | kLev|   count |   mate.C|           
  -164 |Um_Advec|   1462 |   1502 |  40 |       0 |       0 |
  -165 |Vm_Advec|   1502 |   1462 |  40 |       0 |       0 |
  -168 |Um_dPHdx|   1542 |   1582 |  40 |       0 |       0 |
  -169 |Vm_dPHdy|   1582 |   1542 |  40 |       0 |       0 |
  -170 |Um_Ext  |   1622 |   1662 |  40 |       0 |       0 |
  -171 |Vm_Ext  |   1662 |   1622 |  40 |       0 |       0 |
  -192 |SHAP_dU |   1702 |   1742 |  40 |       0 |       0 |
  -193 |SHAP_dV |   1742 |   1702 |  40 |       0 |       0 |
  -174 |Um_AdvRe|   1782 |   1822 |  40 |       0 |       0 |
  -175 |Vm_AdvRe|   1822 |   1782 |  40 |       0 |       0 |
  -172 |Um_AdvZ3|   1862 |   1902 |  40 |       0 |       0 |
  -173 |Vm_AdvZ3|   1902 |   1862 |  40 |       0 |       0 |
  -107 |AB_gU   |   1942 |   1982 |  40 |       0 |       0 |
  -108 |AB_gV   |   1982 |   1942 |  40 |       0 |       0 |
  -198 |AtPhdUdt|   2022 |   2062 |  40 |       0 |       0 |
  -199 |AtPhdVdt|   2062 |   2022 |  40 |       0 |       0 |
  -166 |Um_Cori |   2102 |   2142 |  40 |       0 |       0 |
  -167 |Vm_Cori |   2142 |   2102 |  40 |       0 |       0 |
------------------------------------------------------------------------
Global & Regional Statistics diagnostics: Number of lists:     3
------------------------------------------------------------------------
listId=   1 ; file name: dynStDiag
 nFlds, nActive,       freq     &     phase        |                    
   11  |   11  |     86400.000000         0.000000 |
 Regions:   0
 diag# | name   |   ipt  |  iMate |    Volume   |   mate-Vol. |         
    23 |ETAN    |      1 |      0 | 0.00000E+00 |
    26 |THETA   |      2 |      0 | 0.00000E+00 |
    27 |SALT    |     42 |      0 | 0.00000E+00 |
    28 |RELHUM  |     82 |      0 | 0.00000E+00 |
    37 |UE_VEL_C|    122 |      0 | 0.00000E+00 |
    38 |VN_VEL_C|    162 |      0 | 0.00000E+00 |
    31 |WVEL    |    202 |      0 | 0.00000E+00 |
   196 |AtPhdTdt|    242 |      0 | 0.00000E+00 |
   197 |AtPhdQdt|    282 |      0 | 0.00000E+00 |
   198 |AtPhdUdt|    322 |      0 | 0.00000E+00 |
   199 |AtPhdVdt|    362 |      0 | 0.00000E+00 |
------------------------------------------------------------------------
listId=   2 ; file name: phyStDiag
 nFlds, nActive,       freq     &     phase        |                    
   15  |   15  |     86400.000000         0.000000 |
 Regions:   0
 diag# | name   |   ipt  |  iMate |    Volume   |   mate-Vol. |         
   230 |AtPhdtTg|    402 |      0 | 0.00000E+00 |
   231 |AtPhdtQg|    442 |      0 | 0.00000E+00 |
   200 |AtPhDifT|    482 |      0 | 0.00000E+00 |
   201 |AtPhDifM|    522 |      0 | 0.00000E+00 |
   232 |AtPhDisH|    562 |      0 | 0.00000E+00 |
   100 |HeatDiss|    602 |      0 | 0.00000E+00 |
    99 |MoistCor|    642 |      0 | 0.00000E+00 |
   194 |SHAP_dKE|    682 |      0 | 0.00000E+00 |
   205 |AtPhdTrd|    722 |      0 | 0.00000E+00 |
   204 |AtPhdTlc|    762 |      0 | 0.00000E+00 |
   229 |AtPhdTcv|    802 |      0 | 0.00000E+00 |
   206 |AtPhNSR |    842 |      0 | 0.00000E+00 |
   207 |AtPhNLR |    883 |      0 | 0.00000E+00 |
   208 |AtPhDSR |    924 |      0 | 0.00000E+00 |
   209 |AtPhDLR |    965 |      0 | 0.00000E+00 |
------------------------------------------------------------------------
listId=   3 ; file name: flxStDiag
 nFlds, nActive,       freq     &     phase        |                    
   13  |   13  |     86400.000000         0.000000 |
 Regions:   0
 diag# | name   |   ipt  |  iMate |    Volume   |   mate-Vol. |         
   217 |AtPhSens|   1006 |      0 | 0.00000E+00 |
   218 |AtPhEvap|   1007 |      0 | 0.00000E+00 |
   219 |AtPhTauX|   1008 |      0 | 0.00000E+00 |
   220 |AtPhTauY|   1009 |      0 | 0.00000E+00 |
   202 |AtPhCnvP|   1010 |      0 | 0.00000E+00 |
   203 |AtPhLscP|   1011 |      0 | 0.00000E+00 |
   221 |AtPhCAPE|   1012 |      0 | 0.00000E+00 |
   195 |AtPh_SST|   1013 |      0 | 0.00000E+00 |
   211 |AtPhNTSR|   1014 |      0 | 0.00000E+00 |
   212 |AtPhOLR |   1015 |      0 | 0.00000E+00 |
   214 |AtPhNSSR|   1016 |      0 | 0.00000E+00 |
   215 |AtPhDSLR|   1017 |      0 | 0.00000E+00 |
   216 |AtPhUSLR|   1018 |      0 | 0.00000E+00 |
------------------------------------------------------------------------
(PID.TID 0000.0001)  MDS_READ_FIELD: opening global file: SST_symEx3.bin
(PID.TID 0000.0001) // =======================================================
(PID.TID 0000.0001) // Model current state
(PID.TID 0000.0001) // =======================================================
(PID.TID 0000.0001) 
(PID.TID 0000.0001) // =======================================================
(PID.TID 0000.0001) // Begin MONITOR dynamic field statistics
(PID.TID 0000.0001) // =======================================================
(PID.TID 0000.0001) %MON time_tsnumber                =                129600
(PID.TID 0000.0001) %MON time_secondsf                =   3.1104000000000E+07
(PID.TID 0000.0001) %MON dynstat_eta_max              =   1.7341803869844E+03
(PID.TID 0000.0001) %MON dynstat_eta_min              =  -2.3950225906575E+03
(PID.TID 0000.0001) %MON dynstat_eta_mean             =  -7.6586143005735E-13
(PID.TID 0000.0001) %MON dynstat_eta_sd               =   5.9993762912869E+02
(PID.TID 0000.0001) %MON dynstat_eta_del2             =   1.5316862801225E+00
(PID.TID 0000.0001) %MON dynstat_uvel_max             =   8.5798395504243E+01
(PID.TID 0000.0001) %MON dynstat_uvel_min             =  -8.6380201303506E+01
(PID.TID 0000.0001) %MON dynstat_uvel_mean            =   2.2632946391319E+00
(PID.TID 0000.0001) %MON dynstat_uvel_sd              =   1.1544099158271E+01
(PID.TID 0000.0001) %MON dynstat_uvel_del2            =   4.3277664946017E-03
(PID.TID 0000.0001) %MON dynstat_vvel_max             =   8.6959184671953E+01
(PID.TID 0000.0001) %MON dynstat_vvel_min             =  -8.3006651081092E+01
(PID.TID 0000.0001) %MON dynstat_vvel_mean            =   2.2982506004953E+00
(PID.TID 0000.0001) %MON dynstat_vvel_sd              =   1.1580004911138E+01
(PID.TID 0000.0001) %MON dynstat_vvel_del2            =   4.3222266447659E-03
(PID.TID 0000.0001) %MON dynstat_wvel_max             =   2.7475637641894E-01
(PID.TID 0000.0001) %MON dynstat_wvel_min             =  -6.6415392503297E-01
(PID.TID 0000.0001) %MON dynstat_wvel_mean            =   1.8436557832186E-18
(PID.TID 0000.0001) %MON dynstat_wvel_sd              =   4.3338514478205E-02
(PID.TID 0000.0001) %MON dynstat_wvel_del2            =   7.7060438258889E-05
(PID.TID 0000.0001) %MON dynstat_theta_max            =   5.6880050381550E+03
(PID.TID 0000.0001) %MON dynstat_theta_min            =   2.7146345809825E+02
(PID.TID 0000.0001) %MON dynstat_theta_mean           =   3.5186760463451E+02
(PID.TID 0000.0001) %MON dynstat_theta_sd             =   1.3271531153062E+02
(PID.TID 0000.0001) %MON dynstat_theta_del2           =   5.5498829030817E-03
(PID.TID 0000.0001) %MON dynstat_salt_max             =   2.0161525979205E-02
(PID.TID 0000.0001) %MON dynstat_salt_min             =   2.1505871702081E-20
(PID.TID 0000.0001) %MON dynstat_salt_mean            =   3.9211745085551E-03
(PID.TID 0000.0001) %MON dynstat_salt_sd              =   4.6717227573796E-03
(PID.TID 0000.0001) %MON dynstat_salt_del2            =   9.7826936944100E-07
(PID.TID 0000.0001) %MON trAdv_CFL_u_max              =   0.0000000000000E+00
(PID.TID 0000.0001) %MON trAdv_CFL_v_max              =   0.0000000000000E+00
(PID.TID 0000.0001) %MON trAdv_CFL_w_max              =   0.0000000000000E+00
(PID.TID 0000.0001) %MON advcfl_uvel_max              =   1.2319858369430E-01
(PID.TID 0000.0001) %MON advcfl_vvel_max              =   1.0780689629427E-01
(PID.TID 0000.0001) %MON advcfl_wvel_max              =   2.4151051819381E-02
(PID.TID 0000.0001) %MON advcfl_W_hf_max              =   2.4427299619301E-02
(PID.TID 0000.0001) %MON am_eta_mean                  =   1.5540886256832E+10
(PID.TID 0000.0001) %MON am_uZo_mean                  =   4.1023693622873E+11
(PID.TID 0000.0001) %MON am_tot_mean                  =   4.2577782248556E+11
(PID.TID 0000.0001) %MON pe_b_mean                    =   1.4696262527852E+00
(PID.TID 0000.0001) %MON ke_max                       =   3.8779353183592E+03
(PID.TID 0000.0001) %MON ke_mean                      =   1.3888359782533E+02
(PID.TID 0000.0001) %MON ke_vol                       =   5.0986421042785E+19
(PID.TID 0000.0001) %MON vort_r_min                   =  -9.1971437467412E-05
(PID.TID 0000.0001) %MON vort_r_max                   =   1.2422960279725E-04
(PID.TID 0000.0001) %MON vort_a_mean                  =   5.8832524170842E-20
(PID.TID 0000.0001) %MON vort_a_sd                    =   8.7655362930960E-05
(PID.TID 0000.0001) %MON vort_p_mean                  =   5.6381071737657E-20
(PID.TID 0000.0001) %MON vort_p_sd                    =   8.7769804934593E-05
(PID.TID 0000.0001) %MON surfExpan_theta_mean         =  -4.3747987496689E-03
(PID.TID 0000.0001) %MON surfExpan_salt_mean          =  -1.0246377565870E-06
(PID.TID 0000.0001) %MON surfExpan_Heat_mean          =  -3.7285210412295E-01
(PID.TID 0000.0001) %MON En_Budget_T2PE_mean          =   7.1691342476921E-01
(PID.TID 0000.0001) // =======================================================
(PID.TID 0000.0001) // End MONITOR dynamic field statistics
(PID.TID 0000.0001) // =======================================================
(PID.TID 0000.0001) SURFACE_FLUX_INIT: opening data.atm_gray
(PID.TID 0000.0001)  OPEN_COPY_DATA_FILE: opening file data.atm_gray
(PID.TID 0000.0001) // =======================================================
(PID.TID 0000.0001) // Parameter file "data.atm_gray"
(PID.TID 0000.0001) // =======================================================
(PID.TID 0000.0001) >
(PID.TID 0000.0001) > &atmosphere_nml
(PID.TID 0000.0001) >    turb = .TRUE.,
(PID.TID 0000.0001) >    ldry_convection = .false.,
(PID.TID 0000.0001) >    lwet_convection = .TRUE.,
(PID.TID 0000.0001) >    do_virtual = .false.,
(PID.TID 0000.0001) >    two_stream = .true.,
(PID.TID 0000.0001) >    mixed_layer_bc = .false.,
(PID.TID 0000.0001) >    roughness_heat = 0.05,
(PID.TID 0000.0001) >    roughness_moist = 0.05,
(PID.TID 0000.0001) >    roughness_mom = 0.05,
(PID.TID 0000.0001) > /
(PID.TID 0000.0001) >
(PID.TID 0000.0001) > &radiation_nml
(PID.TID 0000.0001) ># solar_constant= 1365.,
(PID.TID 0000.0001) ># del_sol=1.,
(PID.TID 0000.0001) ># ir_tau_eq=
(PID.TID 0000.0001) ># ir_tau_pole=
(PID.TID 0000.0001) ># atm_abs = 0.,
(PID.TID 0000.0001) ># sw_diff=
(PID.TID 0000.0001) ># linear_tau=
(PID.TID 0000.0001) ># del_sw=
(PID.TID 0000.0001) ># albedo_value=0.38,
(PID.TID 0000.0001) ># window=
(PID.TID 0000.0001) ># select_incSW = 1,
(PID.TID 0000.0001) >  albedo_value=0.4,
(PID.TID 0000.0001) >  solar_exponent=0.,
(PID.TID 0000.0001) >  wv_exponent = -1.,
(PID.TID 0000.0001) >  ozone_in_SW = 1,
(PID.TID 0000.0001) >  two_stream_SW = 1,
(PID.TID 0000.0001) > /
(PID.TID 0000.0001) >
(PID.TID 0000.0001) > &lscale_cond_nml
(PID.TID 0000.0001) ># hc =
(PID.TID 0000.0001) ># do_evap=
(PID.TID 0000.0001) > /
(PID.TID 0000.0001) >
(PID.TID 0000.0001) > &dargan_bettsmiller_nml
(PID.TID 0000.0001) >#-- default:
(PID.TID 0000.0001) >#   tau_bm = 7200.,
(PID.TID 0000.0001) >#   rhbm   = 0.8,
(PID.TID 0000.0001) >#   do_virtual   = .FALSE.,
(PID.TID 0000.0001) >#   do_shallower = .FALSE.,
(PID.TID 0000.0001) >#   do_changeqref= .FALSE.,
(PID.TID 0000.0001) >#   do_envsat    = .FALSE.,
(PID.TID 0000.0001) >#   do_taucape   = .FALSE.,
(PID.TID 0000.0001) >#     capetaubm  = 900.,
(PID.TID 0000.0001) >#     tau_min    = 2400.,
(PID.TID 0000.0001) >#   do_bm_shift  = .FALSE.,
(PID.TID 0000.0001) >#-- POG choice:
(PID.TID 0000.0001) >#  rhbm = 0.7,
(PID.TID 0000.0001) >   do_virtual= .TRUE.,
(PID.TID 0000.0001) >   do_shallower= .TRUE.,
(PID.TID 0000.0001) > /
(PID.TID 0000.0001) >
(PID.TID 0000.0001) > &surface_flux_nml
(PID.TID 0000.0001) > /
(PID.TID 0000.0001) >
(PID.TID 0000.0001) > &vert_turb_driver_nml
(PID.TID 0000.0001) >#  do_shallow_conv, do_mellor_yamada,
(PID.TID 0000.0001) >#  gust_scheme, constant_gust, use_tau,
(PID.TID 0000.0001) >#  do_molecular_diffusion
(PID.TID 0000.0001) >  do_mellor_yamada=.FALSE.,
(PID.TID 0000.0001) > /
(PID.TID 0000.0001) >
(PID.TID 0000.0001) > &diffusivity_nml
(PID.TID 0000.0001) >#  fixed_depth, depth_0, frac_inner,
(PID.TID 0000.0001) >#  rich_crit_pbl, entr_ratio, parcel_buoy,
(PID.TID 0000.0001) >#  znom, free_atm_diff, free_atm_skyhi_diff,
(PID.TID 0000.0001) >#  pbl_mcm, rich_crit_diff, mix_len, rich_prandtl,
(PID.TID 0000.0001) >#  background_m, background_t, ampns, ampns_max,
(PID.TID 0000.0001) >#  do_virtual_non_mcm
(PID.TID 0000.0001) > /
(PID.TID 0000.0001) >
(PID.TID 0000.0001) > &monin_obukhov_nml
(PID.TID 0000.0001) > /
(PID.TID 0000.0001) >
(PID.TID 0000.0001) > &my25_turb_nml
(PID.TID 0000.0001) > /
(PID.TID 0000.0001) >
(PID.TID 0000.0001) > &shallow_conv_nml
(PID.TID 0000.0001) > /
(PID.TID 0000.0001) >
(PID.TID 0000.0001) > &mixed_layer_nml
(PID.TID 0000.0001) ># evaporation, qflux_amp, depth, qflux_width
(PID.TID 0000.0001) >  depth=50.,
(PID.TID 0000.0001) > /
(PID.TID 0000.0001) >
(PID.TID 0000.0001) 
(PID.TID 0000.0001) SURFACE_FLUX_INIT: finished reading data.atm_gray
(PID.TID 0000.0001) MONIN_OBUKHOV_INIT: opening data.atm_gray
(PID.TID 0000.0001)  OPEN_COPY_DATA_FILE: opening file data.atm_gray
(PID.TID 0000.0001) // =======================================================
(PID.TID 0000.0001) // Parameter file "data.atm_gray"
(PID.TID 0000.0001) // =======================================================
(PID.TID 0000.0001) >
(PID.TID 0000.0001) > &atmosphere_nml
(PID.TID 0000.0001) >    turb = .TRUE.,
(PID.TID 0000.0001) >    ldry_convection = .false.,
(PID.TID 0000.0001) >    lwet_convection = .TRUE.,
(PID.TID 0000.0001) >    do_virtual = .false.,
(PID.TID 0000.0001) >    two_stream = .true.,
(PID.TID 0000.0001) >    mixed_layer_bc = .false.,
(PID.TID 0000.0001) >    roughness_heat = 0.05,
(PID.TID 0000.0001) >    roughness_moist = 0.05,
(PID.TID 0000.0001) >    roughness_mom = 0.05,
(PID.TID 0000.0001) > /
(PID.TID 0000.0001) >
(PID.TID 0000.0001) > &radiation_nml
(PID.TID 0000.0001) ># solar_constant= 1365.,
(PID.TID 0000.0001) ># del_sol=1.,
(PID.TID 0000.0001) ># ir_tau_eq=
(PID.TID 0000.0001) ># ir_tau_pole=
(PID.TID 0000.0001) ># atm_abs = 0.,
(PID.TID 0000.0001) ># sw_diff=
(PID.TID 0000.0001) ># linear_tau=
(PID.TID 0000.0001) ># del_sw=
(PID.TID 0000.0001) ># albedo_value=0.38,
(PID.TID 0000.0001) ># window=
(PID.TID 0000.0001) ># select_incSW = 1,
(PID.TID 0000.0001) >  albedo_value=0.4,
(PID.TID 0000.0001) >  solar_exponent=0.,
(PID.TID 0000.0001) >  wv_exponent = -1.,
(PID.TID 0000.0001) >  ozone_in_SW = 1,
(PID.TID 0000.0001) >  two_stream_SW = 1,
(PID.TID 0000.0001) > /
(PID.TID 0000.0001) >
(PID.TID 0000.0001) > &lscale_cond_nml
(PID.TID 0000.0001) ># hc =
(PID.TID 0000.0001) ># do_evap=
(PID.TID 0000.0001) > /
(PID.TID 0000.0001) >
(PID.TID 0000.0001) > &dargan_bettsmiller_nml
(PID.TID 0000.0001) >#-- default:
(PID.TID 0000.0001) >#   tau_bm = 7200.,
(PID.TID 0000.0001) >#   rhbm   = 0.8,
(PID.TID 0000.0001) >#   do_virtual   = .FALSE.,
(PID.TID 0000.0001) >#   do_shallower = .FALSE.,
(PID.TID 0000.0001) >#   do_changeqref= .FALSE.,
(PID.TID 0000.0001) >#   do_envsat    = .FALSE.,
(PID.TID 0000.0001) >#   do_taucape   = .FALSE.,
(PID.TID 0000.0001) >#     capetaubm  = 900.,
(PID.TID 0000.0001) >#     tau_min    = 2400.,
(PID.TID 0000.0001) >#   do_bm_shift  = .FALSE.,
(PID.TID 0000.0001) >#-- POG choice:
(PID.TID 0000.0001) >#  rhbm = 0.7,
(PID.TID 0000.0001) >   do_virtual= .TRUE.,
(PID.TID 0000.0001) >   do_shallower= .TRUE.,
(PID.TID 0000.0001) > /
(PID.TID 0000.0001) >
(PID.TID 0000.0001) > &surface_flux_nml
(PID.TID 0000.0001) > /
(PID.TID 0000.0001) >
(PID.TID 0000.0001) > &vert_turb_driver_nml
(PID.TID 0000.0001) >#  do_shallow_conv, do_mellor_yamada,
(PID.TID 0000.0001) >#  gust_scheme, constant_gust, use_tau,
(PID.TID 0000.0001) >#  do_molecular_diffusion
(PID.TID 0000.0001) >  do_mellor_yamada=.FALSE.,
(PID.TID 0000.0001) > /
(PID.TID 0000.0001) >
(PID.TID 0000.0001) > &diffusivity_nml
(PID.TID 0000.0001) >#  fixed_depth, depth_0, frac_inner,
(PID.TID 0000.0001) >#  rich_crit_pbl, entr_ratio, parcel_buoy,
(PID.TID 0000.0001) >#  znom, free_atm_diff, free_atm_skyhi_diff,
(PID.TID 0000.0001) >#  pbl_mcm, rich_crit_diff, mix_len, rich_prandtl,
(PID.TID 0000.0001) >#  background_m, background_t, ampns, ampns_max,
(PID.TID 0000.0001) >#  do_virtual_non_mcm
(PID.TID 0000.0001) > /
(PID.TID 0000.0001) >
(PID.TID 0000.0001) > &monin_obukhov_nml
(PID.TID 0000.0001) > /
(PID.TID 0000.0001) >
(PID.TID 0000.0001) > &my25_turb_nml
(PID.TID 0000.0001) > /
(PID.TID 0000.0001) >
(PID.TID 0000.0001) > &shallow_conv_nml
(PID.TID 0000.0001) > /
(PID.TID 0000.0001) >
(PID.TID 0000.0001) > &mixed_layer_nml
(PID.TID 0000.0001) ># evaporation, qflux_amp, depth, qflux_width
(PID.TID 0000.0001) >  depth=50.,
(PID.TID 0000.0001) > /
(PID.TID 0000.0001) >
(PID.TID 0000.0001) 
(PID.TID 0000.0001) MONIN_OBUKHOV_INIT: finished reading data.atm_gray
(PID.TID 0000.0001) DIFFUSIVITY_INIT: opening data.atm_gray
(PID.TID 0000.0001)  OPEN_COPY_DATA_FILE: opening file data.atm_gray
(PID.TID 0000.0001) // =======================================================
(PID.TID 0000.0001) // Parameter file "data.atm_gray"
(PID.TID 0000.0001) // =======================================================
(PID.TID 0000.0001) >
(PID.TID 0000.0001) > &atmosphere_nml
(PID.TID 0000.0001) >    turb = .TRUE.,
(PID.TID 0000.0001) >    ldry_convection = .false.,
(PID.TID 0000.0001) >    lwet_convection = .TRUE.,
(PID.TID 0000.0001) >    do_virtual = .false.,
(PID.TID 0000.0001) >    two_stream = .true.,
(PID.TID 0000.0001) >    mixed_layer_bc = .false.,
(PID.TID 0000.0001) >    roughness_heat = 0.05,
(PID.TID 0000.0001) >    roughness_moist = 0.05,
(PID.TID 0000.0001) >    roughness_mom = 0.05,
(PID.TID 0000.0001) > /
(PID.TID 0000.0001) >
(PID.TID 0000.0001) > &radiation_nml
(PID.TID 0000.0001) ># solar_constant= 1365.,
(PID.TID 0000.0001) ># del_sol=1.,
(PID.TID 0000.0001) ># ir_tau_eq=
(PID.TID 0000.0001) ># ir_tau_pole=
(PID.TID 0000.0001) ># atm_abs = 0.,
(PID.TID 0000.0001) ># sw_diff=
(PID.TID 0000.0001) ># linear_tau=
(PID.TID 0000.0001) ># del_sw=
(PID.TID 0000.0001) ># albedo_value=0.38,
(PID.TID 0000.0001) ># window=
(PID.TID 0000.0001) ># select_incSW = 1,
(PID.TID 0000.0001) >  albedo_value=0.4,
(PID.TID 0000.0001) >  solar_exponent=0.,
(PID.TID 0000.0001) >  wv_exponent = -1.,
(PID.TID 0000.0001) >  ozone_in_SW = 1,
(PID.TID 0000.0001) >  two_stream_SW = 1,
(PID.TID 0000.0001) > /
(PID.TID 0000.0001) >
(PID.TID 0000.0001) > &lscale_cond_nml
(PID.TID 0000.0001) ># hc =
(PID.TID 0000.0001) ># do_evap=
(PID.TID 0000.0001) > /
(PID.TID 0000.0001) >
(PID.TID 0000.0001) > &dargan_bettsmiller_nml
(PID.TID 0000.0001) >#-- default:
(PID.TID 0000.0001) >#   tau_bm = 7200.,
(PID.TID 0000.0001) >#   rhbm   = 0.8,
(PID.TID 0000.0001) >#   do_virtual   = .FALSE.,
(PID.TID 0000.0001) >#   do_shallower = .FALSE.,
(PID.TID 0000.0001) >#   do_changeqref= .FALSE.,
(PID.TID 0000.0001) >#   do_envsat    = .FALSE.,
(PID.TID 0000.0001) >#   do_taucape   = .FALSE.,
(PID.TID 0000.0001) >#     capetaubm  = 900.,
(PID.TID 0000.0001) >#     tau_min    = 2400.,
(PID.TID 0000.0001) >#   do_bm_shift  = .FALSE.,
(PID.TID 0000.0001) >#-- POG choice:
(PID.TID 0000.0001) >#  rhbm = 0.7,
(PID.TID 0000.0001) >   do_virtual= .TRUE.,
(PID.TID 0000.0001) >   do_shallower= .TRUE.,
(PID.TID 0000.0001) > /
(PID.TID 0000.0001) >
(PID.TID 0000.0001) > &surface_flux_nml
(PID.TID 0000.0001) > /
(PID.TID 0000.0001) >
(PID.TID 0000.0001) > &vert_turb_driver_nml
(PID.TID 0000.0001) >#  do_shallow_conv, do_mellor_yamada,
(PID.TID 0000.0001) >#  gust_scheme, constant_gust, use_tau,
(PID.TID 0000.0001) >#  do_molecular_diffusion
(PID.TID 0000.0001) >  do_mellor_yamada=.FALSE.,
(PID.TID 0000.0001) > /
(PID.TID 0000.0001) >
(PID.TID 0000.0001) > &diffusivity_nml
(PID.TID 0000.0001) >#  fixed_depth, depth_0, frac_inner,
(PID.TID 0000.0001) >#  rich_crit_pbl, entr_ratio, parcel_buoy,
(PID.TID 0000.0001) >#  znom, free_atm_diff, free_atm_skyhi_diff,
(PID.TID 0000.0001) >#  pbl_mcm, rich_crit_diff, mix_len, rich_prandtl,
(PID.TID 0000.0001) >#  background_m, background_t, ampns, ampns_max,
(PID.TID 0000.0001) >#  do_virtual_non_mcm
(PID.TID 0000.0001) > /
(PID.TID 0000.0001) >
(PID.TID 0000.0001) > &monin_obukhov_nml
(PID.TID 0000.0001) > /
(PID.TID 0000.0001) >
(PID.TID 0000.0001) > &my25_turb_nml
(PID.TID 0000.0001) > /
(PID.TID 0000.0001) >
(PID.TID 0000.0001) > &shallow_conv_nml
(PID.TID 0000.0001) > /
(PID.TID 0000.0001) >
(PID.TID 0000.0001) > &mixed_layer_nml
(PID.TID 0000.0001) ># evaporation, qflux_amp, depth, qflux_width
(PID.TID 0000.0001) >  depth=50.,
(PID.TID 0000.0001) > /
(PID.TID 0000.0001) >
(PID.TID 0000.0001) 
(PID.TID 0000.0001) DIFFUSIVITY_INIT: finished reading data.atm_gray
(PID.TID 0000.0001) SOLVE_FOR_PRESSURE: putPmEinXvector =    F
 cg2d: Sum(rhs),rhsMax =   6.65895640850067E-08  3.69601948519475E+04
(PID.TID 0000.0001)      cg2d_init_res =   2.74632111664258E+03
(PID.TID 0000.0001)      cg2d_iters(min,last) =      -1      10
(PID.TID 0000.0001)      cg2d_last_res =   1.18806214073174E-11
(PID.TID 0000.0001) // =======================================================
(PID.TID 0000.0001) // Begin MONITOR dynamic field statistics
(PID.TID 0000.0001) // =======================================================
(PID.TID 0000.0001) %MON time_tsnumber                =                129601
(PID.TID 0000.0001) %MON time_secondsf                =   3.1104240000000E+07
(PID.TID 0000.0001) %MON dynstat_eta_max              =   1.7348043844362E+03
(PID.TID 0000.0001) %MON dynstat_eta_min              =  -2.3953712807352E+03
(PID.TID 0000.0001) %MON dynstat_eta_mean             =  -6.9088198935244E-13
(PID.TID 0000.0001) %MON dynstat_eta_sd               =   5.9990586920119E+02
(PID.TID 0000.0001) %MON dynstat_eta_del2             =   1.5316850203498E+00
(PID.TID 0000.0001) %MON dynstat_uvel_max             =   8.5799654258991E+01
(PID.TID 0000.0001) %MON dynstat_uvel_min             =  -8.6379066758270E+01
(PID.TID 0000.0001) %MON dynstat_uvel_mean            =   2.2633357908146E+00
(PID.TID 0000.0001) %MON dynstat_uvel_sd              =   1.1544368848698E+01
(PID.TID 0000.0001) %MON dynstat_uvel_del2            =   4.3277392283083E-03
(PID.TID 0000.0001) %MON dynstat_vvel_max             =   8.6960578005473E+01
(PID.TID 0000.0001) %MON dynstat_vvel_min             =  -8.3006212974047E+01
(PID.TID 0000.0001) %MON dynstat_vvel_mean            =   2.2982832239979E+00
(PID.TID 0000.0001) %MON dynstat_vvel_sd              =   1.1579690885476E+01
(PID.TID 0000.0001) %MON dynstat_vvel_del2            =   4.3224230412789E-03
(PID.TID 0000.0001) %MON dynstat_wvel_max             =   2.7369524441887E-01
(PID.TID 0000.0001) %MON dynstat_wvel_min             =  -6.6744617829469E-01
(PID.TID 0000.0001) %MON dynstat_wvel_mean            =   2.2947630493253E-18
(PID.TID 0000.0001) %MON dynstat_wvel_sd              =   4.3331726927426E-02
(PID.TID 0000.0001) %MON dynstat_wvel_del2            =   7.7057879481434E-05
(PID.TID 0000.0001) %MON dynstat_theta_max            =   5.6880187367537E+03
(PID.TID 0000.0001) %MON dynstat_theta_min            =   2.7146350403598E+02
(PID.TID 0000.0001) %MON dynstat_theta_mean           =   3.5186756155489E+02
(PID.TID 0000.0001) %MON dynstat_theta_sd             =   1.3271534850699E+02
(PID.TID 0000.0001) %MON dynstat_theta_del2           =   5.5508229945074E-03
(PID.TID 0000.0001) %MON dynstat_salt_max             =   2.0178443727377E-02
(PID.TID 0000.0001) %MON dynstat_salt_min             =   2.1505923514759E-20
(PID.TID 0000.0001) %MON dynstat_salt_mean            =   3.9211591754808E-03
(PID.TID 0000.0001) %MON dynstat_salt_sd              =   4.6717467332381E-03
(PID.TID 0000.0001) %MON dynstat_salt_del2            =   9.7848896889531E-07
(PID.TID 0000.0001) %MON trAdv_CFL_u_max              =   1.2226857353530E-01
(PID.TID 0000.0001) %MON trAdv_CFL_v_max              =   1.0972060384122E-01
(PID.TID 0000.0001) %MON trAdv_CFL_w_max              =   2.4549931666038E-02
(PID.TID 0000.0001) %MON advcfl_uvel_max              =   1.2316472900767E-01
(PID.TID 0000.0001) %MON advcfl_vvel_max              =   1.0779505263740E-01
(PID.TID 0000.0001) %MON advcfl_wvel_max              =   2.4270770119807E-02
(PID.TID 0000.0001) %MON advcfl_W_hf_max              =   2.4549931666038E-02
(PID.TID 0000.0001) %MON am_eta_mean                  =   1.5535138731463E+10
(PID.TID 0000.0001) %MON am_uZo_mean                  =   4.1024200839742E+11
(PID.TID 0000.0001) %MON am_tot_mean                  =   4.2577714712888E+11
(PID.TID 0000.0001) %MON pe_b_mean                    =   1.4694706566515E+00
(PID.TID 0000.0001) %MON ke_max                       =   3.8785697363693E+03
(PID.TID 0000.0001) %MON ke_mean                      =   1.3888324295086E+02
(PID.TID 0000.0001) %MON ke_vol                       =   5.0986421042785E+19
(PID.TID 0000.0001) %MON vort_r_min                   =  -9.1979659447368E-05
(PID.TID 0000.0001) %MON vort_r_max                   =   1.2380961940602E-04
(PID.TID 0000.0001) %MON vort_a_mean                  =   1.3482453455818E-19
(PID.TID 0000.0001) %MON vort_a_sd                    =   8.7655374184411E-05
(PID.TID 0000.0001) %MON vort_p_mean                  =   1.4217835492153E-19
(PID.TID 0000.0001) %MON vort_p_sd                    =   8.7769791529717E-05
(PID.TID 0000.0001) %MON surfExpan_theta_mean         =  -4.3670479671329E-03
(PID.TID 0000.0001) %MON surfExpan_salt_mean          =  -1.0240731760343E-06
(PID.TID 0000.0001) %MON surfExpan_Heat_mean          =  -3.7227097562400E-01
(PID.TID 0000.0001) %MON En_Budget_T2PE_mean          =   7.1734482331046E-01
(PID.TID 0000.0001) // =======================================================
(PID.TID 0000.0001) // End MONITOR dynamic field statistics
(PID.TID 0000.0001) // =======================================================
 cg2d: Sum(rhs),rhsMax =   6.23986124992371E-08  3.69557512105499E+04
(PID.TID 0000.0001)      cg2d_init_res =   2.74674958942506E+03
(PID.TID 0000.0001)      cg2d_iters(min,last) =      -1      10
(PID.TID 0000.0001)      cg2d_last_res =   1.18789320355545E-11
(PID.TID 0000.0001) // =======================================================
(PID.TID 0000.0001) // Begin MONITOR dynamic field statistics
(PID.TID 0000.0001) // =======================================================
(PID.TID 0000.0001) %MON time_tsnumber                =                129602
(PID.TID 0000.0001) %MON time_secondsf                =   3.1104480000000E+07
(PID.TID 0000.0001) %MON dynstat_eta_max              =   1.7354290940400E+03
(PID.TID 0000.0001) %MON dynstat_eta_min              =  -2.3957123568111E+03
(PID.TID 0000.0001) %MON dynstat_eta_mean             =  -7.0159333802457E-13
(PID.TID 0000.0001) %MON dynstat_eta_sd               =   5.9987421486806E+02
(PID.TID 0000.0001) %MON dynstat_eta_del2             =   1.5316815092179E+00
(PID.TID 0000.0001) %MON dynstat_uvel_max             =   8.5800282566839E+01
(PID.TID 0000.0001) %MON dynstat_uvel_min             =  -8.6377503271463E+01
(PID.TID 0000.0001) %MON dynstat_uvel_mean            =   2.2633765321118E+00
(PID.TID 0000.0001) %MON dynstat_uvel_sd              =   1.1544637365282E+01
(PID.TID 0000.0001) %MON dynstat_uvel_del2            =   4.3276883991357E-03
(PID.TID 0000.0001) %MON dynstat_vvel_max             =   8.6962576519488E+01
(PID.TID 0000.0001) %MON dynstat_vvel_min             =  -8.3004875833718E+01
(PID.TID 0000.0001) %MON dynstat_vvel_mean            =   2.2983161130526E+00
(PID.TID 0000.0001) %MON dynstat_vvel_sd              =   1.1579377868022E+01
(PID.TID 0000.0001) %MON dynstat_vvel_del2            =   4.3226267741085E-03
(PID.TID 0000.0001) %MON dynstat_wvel_max             =   2.7259378874822E-01
(PID.TID 0000.0001) %MON dynstat_wvel_min             =  -6.7058760527702E-01
(PID.TID 0000.0001) %MON dynstat_wvel_mean            =  -2.4712832838888E-18
(PID.TID 0000.0001) %MON dynstat_wvel_sd              =   4.3325166880402E-02
(PID.TID 0000.0001) %MON dynstat_wvel_del2            =   7.7059350776228E-05
(PID.TID 0000.0001) %MON dynstat_theta_max            =   5.6880254125224E+03
(PID.TID 0000.0001) %MON dynstat_theta_min            =   2.7146355016095E+02
(PID.TID 0000.0001) %MON dynstat_theta_mean           =   3.5186751700079E+02
(PID.TID 0000.0001) %MON dynstat_theta_sd             =   1.3271538518483E+02
(PID.TID 0000.0001) %MON dynstat_theta_del2           =   5.5516942767379E-03
(PID.TID 0000.0001) %MON dynstat_salt_max             =   2.0198465806392E-02
(PID.TID 0000.0001) %MON dynstat_salt_min             =   2.1505976501856E-20
(PID.TID 0000.0001) %MON dynstat_salt_mean            =   3.9211442141821E-03
(PID.TID 0000.0001) %MON dynstat_salt_sd              =   4.6717367909553E-03
(PID.TID 0000.0001) %MON dynstat_salt_del2            =   9.7851273488074E-07
(PID.TID 0000.0001) %MON trAdv_CFL_u_max              =   1.2223903766108E-01
(PID.TID 0000.0001) %MON trAdv_CFL_v_max              =   1.0970237196997E-01
(PID.TID 0000.0001) %MON trAdv_CFL_w_max              =   2.4667018508992E-02
(PID.TID 0000.0001) %MON advcfl_uvel_max              =   1.2313065413528E-01
(PID.TID 0000.0001) %MON advcfl_vvel_max              =   1.0778330563493E-01
(PID.TID 0000.0001) %MON advcfl_wvel_max              =   2.4385003828255E-02
(PID.TID 0000.0001) %MON advcfl_W_hf_max              =   2.4667018508992E-02
(PID.TID 0000.0001) %MON am_eta_mean                  =   1.5529405676249E+10
(PID.TID 0000.0001) %MON am_uZo_mean                  =   4.1024706228601E+11
(PID.TID 0000.0001) %MON am_tot_mean                  =   4.2577646796226E+11
(PID.TID 0000.0001) %MON pe_b_mean                    =   1.4693155860350E+00
(PID.TID 0000.0001) %MON ke_max                       =   3.8792107915394E+03
(PID.TID 0000.0001) %MON ke_mean                      =   1.3888288605498E+02
(PID.TID 0000.0001) %MON ke_vol                       =   5.0986421042784E+19
(PID.TID 0000.0001) %MON vort_r_min                   =  -9.1986196761260E-05
(PID.TID 0000.0001) %MON vort_r_max                   =   1.2337729707671E-04
(PID.TID 0000.0001) %MON vort_a_mean                  =  -2.0346247942416E-19
(PID.TID 0000.0001) %MON vort_a_sd                    =   8.7655384121484E-05
(PID.TID 0000.0001) %MON vort_p_mean                  =  -2.1081618159325E-19
(PID.TID 0000.0001) %MON vort_p_sd                    =   8.7769776872030E-05
(PID.TID 0000.0001) %MON surfExpan_theta_mean         =  -4.3592972033988E-03
(PID.TID 0000.0001) %MON surfExpan_salt_mean          =  -1.0235095127087E-06
(PID.TID 0000.0001) %MON surfExpan_Heat_mean          =  -3.7169263802893E-01
(PID.TID 0000.0001) %MON En_Budget_T2PE_mean          =   7.1778359757927E-01
(PID.TID 0000.0001) // =======================================================
(PID.TID 0000.0001) // End MONITOR dynamic field statistics
(PID.TID 0000.0001) // =======================================================
 cg2d: Sum(rhs),rhsMax =   4.93600964546204E-08  3.69511771380784E+04
(PID.TID 0000.0001)      cg2d_init_res =   2.74714471053680E+03
(PID.TID 0000.0001)      cg2d_iters(min,last) =      -1      10
(PID.TID 0000.0001)      cg2d_last_res =   1.18808660302136E-11
(PID.TID 0000.0001) // =======================================================
(PID.TID 0000.0001) // Begin MONITOR dynamic field statistics
(PID.TID 0000.0001) // =======================================================
(PID.TID 0000.0001) %MON time_tsnumber                =                129603
(PID.TID 0000.0001) %MON time_secondsf                =   3.1104720000000E+07
(PID.TID 0000.0001) %MON dynstat_eta_max              =   1.7360527967838E+03
(PID.TID 0000.0001) %MON dynstat_eta_min              =  -2.3960481806738E+03
(PID.TID 0000.0001) %MON dynstat_eta_mean             =  -6.6410361767211E-13
(PID.TID 0000.0001) %MON dynstat_eta_sd               =   5.9984266926064E+02
(PID.TID 0000.0001) %MON dynstat_eta_del2             =   1.5316770371428E+00
(PID.TID 0000.0001) %MON dynstat_uvel_max             =   8.5800269882602E+01
(PID.TID 0000.0001) %MON dynstat_uvel_min             =  -8.6375397650348E+01
(PID.TID 0000.0001) %MON dynstat_uvel_mean            =   2.2634168422298E+00
(PID.TID 0000.0001) %MON dynstat_uvel_sd              =   1.1544905572778E+01
(PID.TID 0000.0001) %MON dynstat_uvel_del2            =   4.3276502494044E-03
(PID.TID 0000.0001) %MON dynstat_vvel_max             =   8.6965170342973E+01
(PID.TID 0000.0001) %MON dynstat_vvel_min             =  -8.3002650236159E+01
(PID.TID 0000.0001) %MON dynstat_vvel_mean            =   2.2983492755125E+00
(PID.TID 0000.0001) %MON dynstat_vvel_sd              =   1.1579065985989E+01
(PID.TID 0000.0001) %MON dynstat_vvel_del2            =   4.3228370577690E-03
(PID.TID 0000.0001) %MON dynstat_wvel_max             =   2.7244011255844E-01
(PID.TID 0000.0001) %MON dynstat_wvel_min             =  -6.7357598975334E-01
(PID.TID 0000.0001) %MON dynstat_wvel_mean            =   1.4513885952998E-18
(PID.TID 0000.0001) %MON dynstat_wvel_sd              =   4.3318858231248E-02
(PID.TID 0000.0001) %MON dynstat_wvel_del2            =   7.7065279005185E-05
(PID.TID 0000.0001) %MON dynstat_theta_max            =   5.6880249043030E+03
(PID.TID 0000.0001) %MON dynstat_theta_min            =   2.7146359650479E+02
(PID.TID 0000.0001) %MON dynstat_theta_mean           =   3.5186747149436E+02
(PID.TID 0000.0001) %MON dynstat_theta_sd             =   1.3271542238728E+02
(PID.TID 0000.0001) %MON dynstat_theta_del2           =   5.5525090073473E-03
(PID.TID 0000.0001) %MON dynstat_salt_max             =   2.0106151077542E-02
(PID.TID 0000.0001) %MON dynstat_salt_min             =   2.1506030674636E-20
(PID.TID 0000.0001) %MON dynstat_salt_mean            =   3.9211296369765E-03
(PID.TID 0000.0001) %MON dynstat_salt_sd              =   4.6717346963529E-03
(PID.TID 0000.0001) %MON dynstat_salt_del2            =   9.7872091539952E-07
(PID.TID 0000.0001) %MON trAdv_CFL_u_max              =   1.2221023104634E-01
(PID.TID 0000.0001) %MON trAdv_CFL_v_max              =   1.0968582026481E-01
(PID.TID 0000.0001) %MON trAdv_CFL_w_max              =   2.4778478240957E-02
(PID.TID 0000.0001) %MON advcfl_uvel_max              =   1.2309647607912E-01
(PID.TID 0000.0001) %MON advcfl_vvel_max              =   1.0777175682566E-01
(PID.TID 0000.0001) %MON advcfl_wvel_max              =   2.4493672354667E-02
(PID.TID 0000.0001) %MON advcfl_W_hf_max              =   2.4778478240957E-02
(PID.TID 0000.0001) %MON am_eta_mean                  =   1.5523687319616E+10
(PID.TID 0000.0001) %MON am_uZo_mean                  =   4.1025209555417E+11
(PID.TID 0000.0001) %MON am_tot_mean                  =   4.2577578287379E+11
(PID.TID 0000.0001) %MON pe_b_mean                    =   1.4691610561926E+00
(PID.TID 0000.0001) %MON ke_max                       =   3.8798555524514E+03
(PID.TID 0000.0001) %MON ke_mean                      =   1.3888253856326E+02
(PID.TID 0000.0001) %MON ke_vol                       =   5.0986421042785E+19
(PID.TID 0000.0001) %MON vort_r_min                   =  -9.1991043794473E-05
(PID.TID 0000.0001) %MON vort_r_max                   =   1.2293300059106E-04
(PID.TID 0000.0001) %MON vort_a_mean                  =   2.0591383459795E-19
(PID.TID 0000.0001) %MON vort_a_sd                    =   8.7655394793286E-05
(PID.TID 0000.0001) %MON vort_p_mean                  =   2.1081618175273E-19
(PID.TID 0000.0001) %MON vort_p_sd                    =   8.7769763004366E-05
(PID.TID 0000.0001) %MON surfExpan_theta_mean         =  -4.3515473649369E-03
(PID.TID 0000.0001) %MON surfExpan_salt_mean          =  -1.0229167737215E-06
(PID.TID 0000.0001) %MON surfExpan_Heat_mean          =  -3.7111714424824E-01
(PID.TID 0000.0001) %MON En_Budget_T2PE_mean          =   7.1822105824905E-01
(PID.TID 0000.0001) // =======================================================
(PID.TID 0000.0001) // End MONITOR dynamic field statistics
(PID.TID 0000.0001) // =======================================================
 cg2d: Sum(rhs),rhsMax =   5.44823706150055E-08  3.69464707165532E+04
(PID.TID 0000.0001)      cg2d_init_res =   2.74721879801777E+03
(PID.TID 0000.0001)      cg2d_iters(min,last) =      -1      10
(PID.TID 0000.0001)      cg2d_last_res =   1.18855971652949E-11
(PID.TID 0000.0001) // =======================================================
(PID.TID 0000.0001) // Begin MONITOR dynamic field statistics
(PID.TID 0000.0001) // =======================================================
(PID.TID 0000.0001) %MON time_tsnumber                =                129604
(PID.TID 0000.0001) %MON time_secondsf                =   3.1104960000000E+07
(PID.TID 0000.0001) %MON dynstat_eta_max              =   1.7366737520667E+03
(PID.TID 0000.0001) %MON dynstat_eta_min              =  -2.3963804598439E+03
(PID.TID 0000.0001) %MON dynstat_eta_mean             =  -7.9799547607375E-13
(PID.TID 0000.0001) %MON dynstat_eta_sd               =   5.9981123649812E+02
(PID.TID 0000.0001) %MON dynstat_eta_del2             =   1.5316757953496E+00
(PID.TID 0000.0001) %MON dynstat_uvel_max             =   8.5799605124662E+01
(PID.TID 0000.0001) %MON dynstat_uvel_min             =  -8.6372660450965E+01
(PID.TID 0000.0001) %MON dynstat_uvel_mean            =   2.2634568494446E+00
(PID.TID 0000.0001) %MON dynstat_uvel_sd              =   1.1545173184001E+01
(PID.TID 0000.0001) %MON dynstat_uvel_del2            =   4.3276113191884E-03
(PID.TID 0000.0001) %MON dynstat_vvel_max             =   8.6968354490118E+01
(PID.TID 0000.0001) %MON dynstat_vvel_min             =  -8.2999560115330E+01
(PID.TID 0000.0001) %MON dynstat_vvel_mean            =   2.2983826899686E+00
(PID.TID 0000.0001) %MON dynstat_vvel_sd              =   1.1578754930973E+01
(PID.TID 0000.0001) %MON dynstat_vvel_del2            =   4.3230436988421E-03
(PID.TID 0000.0001) %MON dynstat_wvel_max             =   2.7300572242514E-01
(PID.TID 0000.0001) %MON dynstat_wvel_min             =  -6.7640939619749E-01
(PID.TID 0000.0001) %MON dynstat_wvel_mean            =  -5.6878742248235E-19
(PID.TID 0000.0001) %MON dynstat_wvel_sd              =   4.3312783002287E-02
(PID.TID 0000.0001) %MON dynstat_wvel_del2            =   7.7075743095234E-05
(PID.TID 0000.0001) %MON dynstat_theta_max            =   5.6880170733177E+03
(PID.TID 0000.0001) %MON dynstat_theta_min            =   2.7146364309119E+02
(PID.TID 0000.0001) %MON dynstat_theta_mean           =   3.5186742561233E+02
(PID.TID 0000.0001) %MON dynstat_theta_sd             =   1.3271545939499E+02
(PID.TID 0000.0001) %MON dynstat_theta_del2           =   5.5532664313271E-03
(PID.TID 0000.0001) %MON dynstat_salt_max             =   2.0130965538464E-02
(PID.TID 0000.0001) %MON dynstat_salt_min             =   2.1506086047277E-20
(PID.TID 0000.0001) %MON dynstat_salt_mean            =   3.9211152223032E-03
(PID.TID 0000.0001) %MON dynstat_salt_sd              =   4.6717103414877E-03
(PID.TID 0000.0001) %MON dynstat_salt_del2            =   9.7881006936085E-07
(PID.TID 0000.0001) %MON trAdv_CFL_u_max              =   1.2218204581747E-01
(PID.TID 0000.0001) %MON trAdv_CFL_v_max              =   1.0967121832796E-01
(PID.TID 0000.0001) %MON trAdv_CFL_w_max              =   2.4884239978329E-02
(PID.TID 0000.0001) %MON advcfl_uvel_max              =   1.2306236826065E-01
(PID.TID 0000.0001) %MON advcfl_vvel_max              =   1.0776036293123E-01
(PID.TID 0000.0001) %MON advcfl_wvel_max              =   2.4596705316272E-02
(PID.TID 0000.0001) %MON advcfl_W_hf_max              =   2.4884239978329E-02
(PID.TID 0000.0001) %MON am_eta_mean                  =   1.5517983904413E+10
(PID.TID 0000.0001) %MON am_uZo_mean                  =   4.1025710879108E+11
(PID.TID 0000.0001) %MON am_tot_mean                  =   4.2577509269549E+11
(PID.TID 0000.0001) %MON pe_b_mean                    =   1.4690070872170E+00
(PID.TID 0000.0001) %MON ke_max                       =   3.8805011485192E+03
(PID.TID 0000.0001) %MON ke_mean                      =   1.3888219382899E+02
(PID.TID 0000.0001) %MON ke_vol                       =   5.0986421042784E+19
(PID.TID 0000.0001) %MON vort_r_min                   =  -9.1994195798779E-05
(PID.TID 0000.0001) %MON vort_r_max                   =   1.2247692316489E-04
(PID.TID 0000.0001) %MON vort_a_mean                  =  -4.4124393128132E-20
(PID.TID 0000.0001) %MON vort_a_sd                    =   8.7655405277773E-05
(PID.TID 0000.0001) %MON vort_p_mean                  =  -4.4124317144427E-20
(PID.TID 0000.0001) %MON vort_p_sd                    =   8.7769749004125E-05
(PID.TID 0000.0001) %MON surfExpan_theta_mean         =  -4.3438362086025E-03
(PID.TID 0000.0001) %MON surfExpan_salt_mean          =  -1.0223118796770E-06
(PID.TID 0000.0001) %MON surfExpan_Heat_mean          =  -3.7054761255079E-01
(PID.TID 0000.0001) %MON En_Budget_T2PE_mean          =   7.1866155537049E-01
(PID.TID 0000.0001) // =======================================================
(PID.TID 0000.0001) // End MONITOR dynamic field statistics
(PID.TID 0000.0001) // =======================================================
 cg2d: Sum(rhs),rhsMax =   5.49480319023132E-08  3.69416296908125E+04
(PID.TID 0000.0001)      cg2d_init_res =   2.74740958831706E+03
(PID.TID 0000.0001)      cg2d_iters(min,last) =      -1      10
(PID.TID 0000.0001)      cg2d_last_res =   1.18888305979676E-11
(PID.TID 0000.0001) // =======================================================
(PID.TID 0000.0001) // Begin MONITOR dynamic field statistics
(PID.TID 0000.0001) // =======================================================
(PID.TID 0000.0001) %MON time_tsnumber                =                129605
(PID.TID 0000.0001) %MON time_secondsf                =   3.1105200000000E+07
(PID.TID 0000.0001) %MON dynstat_eta_max              =   1.7372905865120E+03
(PID.TID 0000.0001) %MON dynstat_eta_min              =  -2.3967100951233E+03
(PID.TID 0000.0001) %MON dynstat_eta_mean             =  -6.9088198935244E-13
(PID.TID 0000.0001) %MON dynstat_eta_sd               =   5.9977992092937E+02
(PID.TID 0000.0001) %MON dynstat_eta_del2             =   1.5316783606999E+00
(PID.TID 0000.0001) %MON dynstat_uvel_max             =   8.5798278275461E+01
(PID.TID 0000.0001) %MON dynstat_uvel_min             =  -8.6369232090229E+01
(PID.TID 0000.0001) %MON dynstat_uvel_mean            =   2.2634965239488E+00
(PID.TID 0000.0001) %MON dynstat_uvel_sd              =   1.1545440339430E+01
(PID.TID 0000.0001) %MON dynstat_uvel_del2            =   4.3275736096860E-03
(PID.TID 0000.0001) %MON dynstat_vvel_max             =   8.6972127018290E+01
(PID.TID 0000.0001) %MON dynstat_vvel_min             =  -8.2995633762184E+01
(PID.TID 0000.0001) %MON dynstat_vvel_mean            =   2.2984163987768E+00
(PID.TID 0000.0001) %MON dynstat_vvel_sd              =   1.1578444793798E+01
(PID.TID 0000.0001) %MON dynstat_vvel_del2            =   4.3232523379550E-03
(PID.TID 0000.0001) %MON dynstat_wvel_max             =   2.7353386137921E-01
(PID.TID 0000.0001) %MON dynstat_wvel_min             =  -6.7908618809173E-01
(PID.TID 0000.0001) %MON dynstat_wvel_mean            =   2.1574695335537E-19
(PID.TID 0000.0001) %MON dynstat_wvel_sd              =   4.3306940636285E-02
(PID.TID 0000.0001) %MON dynstat_wvel_del2            =   7.7090630826927E-05
(PID.TID 0000.0001) %MON dynstat_theta_max            =   5.6880018081033E+03
(PID.TID 0000.0001) %MON dynstat_theta_min            =   2.7146368996367E+02
(PID.TID 0000.0001) %MON dynstat_theta_mean           =   3.5186738005678E+02
(PID.TID 0000.0001) %MON dynstat_theta_sd             =   1.3271549724538E+02
(PID.TID 0000.0001) %MON dynstat_theta_del2           =   5.5539839944861E-03
(PID.TID 0000.0001) %MON dynstat_salt_max             =   2.0151365604962E-02
(PID.TID 0000.0001) %MON dynstat_salt_min             =   2.1506142637930E-20
(PID.TID 0000.0001) %MON dynstat_salt_mean            =   3.9211008326483E-03
(PID.TID 0000.0001) %MON dynstat_salt_sd              =   4.6717412286602E-03
(PID.TID 0000.0001) %MON dynstat_salt_del2            =   9.7875106784984E-07
(PID.TID 0000.0001) %MON trAdv_CFL_u_max              =   1.2215438459162E-01
(PID.TID 0000.0001) %MON trAdv_CFL_v_max              =   1.0965879280528E-01
(PID.TID 0000.0001) %MON trAdv_CFL_w_max              =   2.4984244184227E-02
(PID.TID 0000.0001) %MON advcfl_uvel_max              =   1.2302852854542E-01
(PID.TID 0000.0001) %MON advcfl_vvel_max              =   1.0774911628069E-01
(PID.TID 0000.0001) %MON advcfl_wvel_max              =   2.4694043203336E-02
(PID.TID 0000.0001) %MON advcfl_W_hf_max              =   2.4984244184227E-02
(PID.TID 0000.0001) %MON am_eta_mean                  =   1.5512295628459E+10
(PID.TID 0000.0001) %MON am_uZo_mean                  =   4.1026210210364E+11
(PID.TID 0000.0001) %MON am_tot_mean                  =   4.2577439773210E+11
(PID.TID 0000.0001) %MON pe_b_mean                    =   1.4688537003221E+00
(PID.TID 0000.0001) %MON ke_max                       =   3.8811448410834E+03
(PID.TID 0000.0001) %MON ke_mean                      =   1.3888185455424E+02
(PID.TID 0000.0001) %MON ke_vol                       =   5.0986421042784E+19
(PID.TID 0000.0001) %MON vort_r_min                   =  -9.1995649331238E-05
(PID.TID 0000.0001) %MON vort_r_max                   =   1.2200932788300E-04
(PID.TID 0000.0001) %MON vort_a_mean                  =   1.7649757251253E-19
(PID.TID 0000.0001) %MON vort_a_sd                    =   8.7655415725468E-05
(PID.TID 0000.0001) %MON vort_p_mean                  =   1.7159456680272E-19
(PID.TID 0000.0001) %MON vort_p_sd                    =   8.7769735022397E-05
(PID.TID 0000.0001) %MON surfExpan_theta_mean         =  -4.3362113541906E-03
(PID.TID 0000.0001) %MON surfExpan_salt_mean          =  -1.0216623278634E-06
(PID.TID 0000.0001) %MON surfExpan_Heat_mean          =  -3.6998839708594E-01
(PID.TID 0000.0001) %MON En_Budget_T2PE_mean          =   7.1909706603777E-01
(PID.TID 0000.0001) // =======================================================
(PID.TID 0000.0001) // End MONITOR dynamic field statistics
(PID.TID 0000.0001) // =======================================================
 cg2d: Sum(rhs),rhsMax =   6.84522092342377E-08  3.69366481499312E+04
(PID.TID 0000.0001)      cg2d_init_res =   2.74765065542387E+03
(PID.TID 0000.0001)      cg2d_iters(min,last) =      -1      10
(PID.TID 0000.0001)      cg2d_last_res =   1.18917976987562E-11
(PID.TID 0000.0001) // =======================================================
(PID.TID 0000.0001) // Begin MONITOR dynamic field statistics
(PID.TID 0000.0001) // =======================================================
(PID.TID 0000.0001) %MON time_tsnumber                =                129606
(PID.TID 0000.0001) %MON time_secondsf                =   3.1105440000000E+07
(PID.TID 0000.0001) %MON dynstat_eta_max              =   1.7379024583757E+03
(PID.TID 0000.0001) %MON dynstat_eta_min              =  -2.3970372422314E+03
(PID.TID 0000.0001) %MON dynstat_eta_mean             =  -5.8376850263113E-13
(PID.TID 0000.0001) %MON dynstat_eta_sd               =   5.9974872561912E+02
(PID.TID 0000.0001) %MON dynstat_eta_del2             =   1.5316832387144E+00
(PID.TID 0000.0001) %MON dynstat_uvel_max             =   8.5796285775429E+01
(PID.TID 0000.0001) %MON dynstat_uvel_min             =  -8.6365081902449E+01
(PID.TID 0000.0001) %MON dynstat_uvel_mean            =   2.2635358306857E+00
(PID.TID 0000.0001) %MON dynstat_uvel_sd              =   1.1545706894867E+01
(PID.TID 0000.0001) %MON dynstat_uvel_del2            =   4.3275520135836E-03
(PID.TID 0000.0001) %MON dynstat_vvel_max             =   8.6976485909009E+01
(PID.TID 0000.0001) %MON dynstat_vvel_min             =  -8.2990893132590E+01
(PID.TID 0000.0001) %MON dynstat_vvel_mean            =   2.2984504298925E+00
(PID.TID 0000.0001) %MON dynstat_vvel_sd              =   1.1578135700045E+01
(PID.TID 0000.0001) %MON dynstat_vvel_del2            =   4.3234702956196E-03
(PID.TID 0000.0001) %MON dynstat_wvel_max             =   2.7402429488654E-01
(PID.TID 0000.0001) %MON dynstat_wvel_min             =  -6.8160527758322E-01
(PID.TID 0000.0001) %MON dynstat_wvel_mean            =   1.4513885952998E-18
(PID.TID 0000.0001) %MON dynstat_wvel_sd              =   4.3301305274797E-02
(PID.TID 0000.0001) %MON dynstat_wvel_del2            =   7.7109481684025E-05
(PID.TID 0000.0001) %MON dynstat_theta_max            =   5.6879790041361E+03
(PID.TID 0000.0001) %MON dynstat_theta_min            =   2.7146373708207E+02
(PID.TID 0000.0001) %MON dynstat_theta_mean           =   3.5186733496913E+02
(PID.TID 0000.0001) %MON dynstat_theta_sd             =   1.3271553422748E+02
(PID.TID 0000.0001) %MON dynstat_theta_del2           =   5.5546706611844E-03
(PID.TID 0000.0001) %MON dynstat_salt_max             =   2.0166042097799E-02
(PID.TID 0000.0001) %MON dynstat_salt_min             =   2.1506200469342E-20
(PID.TID 0000.0001) %MON dynstat_salt_mean            =   3.9210861202573E-03
(PID.TID 0000.0001) %MON dynstat_salt_sd              =   4.6717230261623E-03
(PID.TID 0000.0001) %MON dynstat_salt_del2            =   9.7887663749233E-07
(PID.TID 0000.0001) %MON trAdv_CFL_u_max              =   1.2212717456806E-01
(PID.TID 0000.0001) %MON trAdv_CFL_v_max              =   1.0964870707825E-01
(PID.TID 0000.0001) %MON trAdv_CFL_w_max              =   2.5078451408870E-02
(PID.TID 0000.0001) %MON advcfl_uvel_max              =   1.2299514074450E-01
(PID.TID 0000.0001) %MON advcfl_vvel_max              =   1.0773804455339E-01
(PID.TID 0000.0001) %MON advcfl_wvel_max              =   2.4785646457571E-02
(PID.TID 0000.0001) %MON advcfl_W_hf_max              =   2.5078451408870E-02
(PID.TID 0000.0001) %MON am_eta_mean                  =   1.5506622666199E+10
(PID.TID 0000.0001) %MON am_uZo_mean                  =   4.1026707524428E+11
(PID.TID 0000.0001) %MON am_tot_mean                  =   4.2577369791048E+11
(PID.TID 0000.0001) %MON pe_b_mean                    =   1.4687009104281E+00
(PID.TID 0000.0001) %MON ke_max                       =   3.8817842034772E+03
(PID.TID 0000.0001) %MON ke_mean                      =   1.3888152051179E+02
(PID.TID 0000.0001) %MON ke_vol                       =   5.0986421042784E+19
(PID.TID 0000.0001) %MON vort_r_min                   =  -9.1995402335440E-05
(PID.TID 0000.0001) %MON vort_r_max                   =   1.2153050351370E-04
(PID.TID 0000.0001) %MON vort_a_mean                  =   6.3735234518412E-20
(PID.TID 0000.0001) %MON vort_a_sd                    =   8.7655426375754E-05
(PID.TID 0000.0001) %MON vort_p_mean                  =   6.3735124860589E-20
(PID.TID 0000.0001) %MON vort_p_sd                    =   8.7769721295775E-05
(PID.TID 0000.0001) %MON surfExpan_theta_mean         =  -4.3286864245478E-03
(PID.TID 0000.0001) %MON surfExpan_salt_mean          =  -1.0210197163142E-06
(PID.TID 0000.0001) %MON surfExpan_Heat_mean          =  -3.6944094253427E-01
(PID.TID 0000.0001) %MON En_Budget_T2PE_mean          =   7.1954190974802E-01
(PID.TID 0000.0001) // =======================================================
(PID.TID 0000.0001) // End MONITOR dynamic field statistics
(PID.TID 0000.0001) // =======================================================
 cg2d: Sum(rhs),rhsMax =   6.23986124992371E-08  3.69315172025491E+04
(PID.TID 0000.0001)      cg2d_init_res =   2.74765428282598E+03
(PID.TID 0000.0001)      cg2d_iters(min,last) =      -1      10
(PID.TID 0000.0001)      cg2d_last_res =   1.18915684654768E-11
(PID.TID 0000.0001) // =======================================================
(PID.TID 0000.0001) // Begin MONITOR dynamic field statistics
(PID.TID 0000.0001) // =======================================================
(PID.TID 0000.0001) %MON time_tsnumber                =                129607
(PID.TID 0000.0001) %MON time_secondsf                =   3.1105680000000E+07
(PID.TID 0000.0001) %MON dynstat_eta_max              =   1.7385091074336E+03
(PID.TID 0000.0001) %MON dynstat_eta_min              =  -2.3973615169762E+03
(PID.TID 0000.0001) %MON dynstat_eta_mean             =  -7.4443873271309E-13
(PID.TID 0000.0001) %MON dynstat_eta_sd               =   5.9971765560609E+02
(PID.TID 0000.0001) %MON dynstat_eta_del2             =   1.5316940118212E+00
(PID.TID 0000.0001) %MON dynstat_uvel_max             =   8.5793637485432E+01
(PID.TID 0000.0001) %MON dynstat_uvel_min             =  -8.6360205697417E+01
(PID.TID 0000.0001) %MON dynstat_uvel_mean            =   2.2635748120898E+00
(PID.TID 0000.0001) %MON dynstat_uvel_sd              =   1.1545972558926E+01
(PID.TID 0000.0001) %MON dynstat_uvel_del2            =   4.3275177025208E-03
(PID.TID 0000.0001) %MON dynstat_vvel_max             =   8.6981425647969E+01
(PID.TID 0000.0001) %MON dynstat_vvel_min             =  -8.2985377636037E+01
(PID.TID 0000.0001) %MON dynstat_vvel_mean            =   2.2984847961343E+00
(PID.TID 0000.0001) %MON dynstat_vvel_sd              =   1.1577827401874E+01
(PID.TID 0000.0001) %MON dynstat_vvel_del2            =   4.3236879317196E-03
(PID.TID 0000.0001) %MON dynstat_wvel_max             =   2.7447676985137E-01
(PID.TID 0000.0001) %MON dynstat_wvel_min             =  -6.8396430760291E-01
(PID.TID 0000.0001) %MON dynstat_wvel_mean            =   1.2160282825485E-18
(PID.TID 0000.0001) %MON dynstat_wvel_sd              =   4.3295843897816E-02
(PID.TID 0000.0001) %MON dynstat_wvel_del2            =   7.7132303619532E-05
(PID.TID 0000.0001) %MON dynstat_theta_max            =   5.6879485581850E+03
(PID.TID 0000.0001) %MON dynstat_theta_min            =   2.7146378445180E+02
(PID.TID 0000.0001) %MON dynstat_theta_mean           =   3.5186729173640E+02
(PID.TID 0000.0001) %MON dynstat_theta_sd             =   1.3271557058742E+02
(PID.TID 0000.0001) %MON dynstat_theta_del2           =   5.5553143385082E-03
(PID.TID 0000.0001) %MON dynstat_salt_max             =   2.0178975838971E-02
(PID.TID 0000.0001) %MON dynstat_salt_min             =   2.1506259568742E-20
(PID.TID 0000.0001) %MON dynstat_salt_mean            =   3.9210707645855E-03
(PID.TID 0000.0001) %MON dynstat_salt_sd              =   4.6717191939563E-03
(PID.TID 0000.0001) %MON dynstat_salt_del2            =   9.7885419108227E-07
(PID.TID 0000.0001) %MON trAdv_CFL_u_max              =   1.2210040969519E-01
(PID.TID 0000.0001) %MON trAdv_CFL_v_max              =   1.0964105583382E-01
(PID.TID 0000.0001) %MON trAdv_CFL_w_max              =   2.5166775010604E-02
(PID.TID 0000.0001) %MON advcfl_uvel_max              =   1.2296234984049E-01
(PID.TID 0000.0001) %MON advcfl_vvel_max              =   1.0772705865382E-01
(PID.TID 0000.0001) %MON advcfl_wvel_max              =   2.4871429367379E-02
(PID.TID 0000.0001) %MON advcfl_W_hf_max              =   2.5166775010604E-02
(PID.TID 0000.0001) %MON am_eta_mean                  =   1.5500965181784E+10
(PID.TID 0000.0001) %MON am_uZo_mean                  =   4.1027202804132E+11
(PID.TID 0000.0001) %MON am_tot_mean                  =   4.2577299322310E+11
(PID.TID 0000.0001) %MON pe_b_mean                    =   1.4685487421200E+00
(PID.TID 0000.0001) %MON ke_max                       =   3.8824174116687E+03
(PID.TID 0000.0001) %MON ke_mean                      =   1.3888118559184E+02
(PID.TID 0000.0001) %MON ke_vol                       =   5.0986421042785E+19
(PID.TID 0000.0001) %MON vort_r_min                   =  -9.1993453895480E-05
(PID.TID 0000.0001) %MON vort_r_max                   =   1.2104063100559E-04
(PID.TID 0000.0001) %MON vort_a_mean                  =  -1.9120570355524E-19
(PID.TID 0000.0001) %MON vort_a_sd                    =   8.7655436477142E-05
(PID.TID 0000.0001) %MON vort_p_mean                  =  -1.9365672568453E-19
(PID.TID 0000.0001) %MON vort_p_sd                    =   8.7769707072230E-05
(PID.TID 0000.0001) %MON surfExpan_theta_mean         =  -4.3212730010378E-03
(PID.TID 0000.0001) %MON surfExpan_salt_mean          =  -1.0204106683915E-06
(PID.TID 0000.0001) %MON surfExpan_Heat_mean          =  -3.6890608508189E-01
(PID.TID 0000.0001) %MON En_Budget_T2PE_mean          =   7.1998688253277E-01
(PID.TID 0000.0001) // =======================================================
(PID.TID 0000.0001) // End MONITOR dynamic field statistics
(PID.TID 0000.0001) // =======================================================
 cg2d: Sum(rhs),rhsMax =   7.35744833946228E-08  3.69262249487288E+04
(PID.TID 0000.0001)      cg2d_init_res =   2.74791722219233E+03
(PID.TID 0000.0001)      cg2d_iters(min,last) =      -1      10
(PID.TID 0000.0001)      cg2d_last_res =   1.18926747114232E-11
(PID.TID 0000.0001) // =======================================================
(PID.TID 0000.0001) // Begin MONITOR dynamic field statistics
(PID.TID 0000.0001) // =======================================================
(PID.TID 0000.0001) %MON time_tsnumber                =                129608
(PID.TID 0000.0001) %MON time_secondsf                =   3.1105920000000E+07
(PID.TID 0000.0001) %MON dynstat_eta_max              =   1.7391108272957E+03
(PID.TID 0000.0001) %MON dynstat_eta_min              =  -2.3976822701231E+03
(PID.TID 0000.0001) %MON dynstat_eta_mean             =  -7.2301603536883E-13
(PID.TID 0000.0001) %MON dynstat_eta_sd               =   5.9968671643373E+02
(PID.TID 0000.0001) %MON dynstat_eta_del2             =   1.5317085015129E+00
(PID.TID 0000.0001) %MON dynstat_uvel_max             =   8.5790361072082E+01
(PID.TID 0000.0001) %MON dynstat_uvel_min             =  -8.6354620822376E+01
(PID.TID 0000.0001) %MON dynstat_uvel_mean            =   2.2636136136957E+00
(PID.TID 0000.0001) %MON dynstat_uvel_sd              =   1.1546237743109E+01
(PID.TID 0000.0001) %MON dynstat_uvel_del2            =   4.3274637648632E-03
(PID.TID 0000.0001) %MON dynstat_vvel_max             =   8.6986934259059E+01
(PID.TID 0000.0001) %MON dynstat_vvel_min             =  -8.2979082991294E+01
(PID.TID 0000.0001) %MON dynstat_vvel_mean            =   2.2985193310782E+00
(PID.TID 0000.0001) %MON dynstat_vvel_sd              =   1.1577519463661E+01
(PID.TID 0000.0001) %MON dynstat_vvel_del2            =   4.3239002041586E-03
(PID.TID 0000.0001) %MON dynstat_wvel_max             =   2.7489114152086E-01
(PID.TID 0000.0001) %MON dynstat_wvel_min             =  -6.8616097705113E-01
(PID.TID 0000.0001) %MON dynstat_wvel_mean            =   3.3734978161022E-18
(PID.TID 0000.0001) %MON dynstat_wvel_sd              =   4.3290548124002E-02
(PID.TID 0000.0001) %MON dynstat_wvel_del2            =   7.7158454604172E-05
(PID.TID 0000.0001) %MON dynstat_theta_max            =   5.6879103565311E+03
(PID.TID 0000.0001) %MON dynstat_theta_min            =   2.7146383210315E+02
(PID.TID 0000.0001) %MON dynstat_theta_mean           =   3.5186724755566E+02
(PID.TID 0000.0001) %MON dynstat_theta_sd             =   1.3271560720715E+02
(PID.TID 0000.0001) %MON dynstat_theta_del2           =   5.5559305493569E-03
(PID.TID 0000.0001) %MON dynstat_salt_max             =   2.0195682848068E-02
(PID.TID 0000.0001) %MON dynstat_salt_min             =   2.1506319966780E-20
(PID.TID 0000.0001) %MON dynstat_salt_mean            =   3.9210557574019E-03
(PID.TID 0000.0001) %MON dynstat_salt_sd              =   4.6717129806231E-03
(PID.TID 0000.0001) %MON dynstat_salt_del2            =   9.7890629787993E-07
(PID.TID 0000.0001) %MON trAdv_CFL_u_max              =   1.2207413215961E-01
(PID.TID 0000.0001) %MON trAdv_CFL_v_max              =   1.0963587934409E-01
(PID.TID 0000.0001) %MON trAdv_CFL_w_max              =   2.5249129204978E-02
(PID.TID 0000.0001) %MON advcfl_uvel_max              =   1.2293028941835E-01
(PID.TID 0000.0001) %MON advcfl_vvel_max              =   1.0771621325589E-01
(PID.TID 0000.0001) %MON advcfl_wvel_max              =   2.4951308256405E-02
(PID.TID 0000.0001) %MON advcfl_W_hf_max              =   2.5249129204978E-02
(PID.TID 0000.0001) %MON am_eta_mean                  =   1.5495323306627E+10
(PID.TID 0000.0001) %MON am_uZo_mean                  =   4.1027695715355E+11
(PID.TID 0000.0001) %MON am_tot_mean                  =   4.2577228046017E+11
(PID.TID 0000.0001) %MON pe_b_mean                    =   1.4683972224500E+00
(PID.TID 0000.0001) %MON ke_max                       =   3.8830432818798E+03
(PID.TID 0000.0001) %MON ke_mean                      =   1.3888084944770E+02
(PID.TID 0000.0001) %MON ke_vol                       =   5.0986421042785E+19
(PID.TID 0000.0001) %MON vort_r_min                   =  -9.1989803998964E-05
(PID.TID 0000.0001) %MON vort_r_max                   =   1.2053993783432E-04
(PID.TID 0000.0001) %MON vort_a_mean                  =   2.6964906911636E-20
(PID.TID 0000.0001) %MON vort_a_sd                    =   8.7655445669948E-05
(PID.TID 0000.0001) %MON vort_p_mean                  =   2.4513509598988E-20
(PID.TID 0000.0001) %MON vort_p_sd                    =   8.7769691981532E-05
(PID.TID 0000.0001) %MON surfExpan_theta_mean         =  -4.3139148605292E-03
(PID.TID 0000.0001) %MON surfExpan_salt_mean          =  -1.0198152076925E-06
(PID.TID 0000.0001) %MON surfExpan_Heat_mean          =  -3.6837893653313E-01
(PID.TID 0000.0001) %MON En_Budget_T2PE_mean          =   7.2043042781818E-01
(PID.TID 0000.0001) // =======================================================
(PID.TID 0000.0001) // End MONITOR dynamic field statistics
(PID.TID 0000.0001) // =======================================================
 Computing Diagnostic #     23  ETAN         Counter:       8   Parms: SM      M1      
 Computing Diagnostic #     24  ETANSQ       Counter:       8   Parms: SM P    M1      
 Computing Diagnostic #     25  DETADT2      Counter:       8   Parms: SM      M1      
 Computing Diagnostic #     73  PHI_SURF     Counter:       8   Parms: SM      M1      
 Computing Diagnostic #    202  AtPhCnvP     Counter:       8   Parms: SM      L1      
 Computing Diagnostic #    203  AtPhLscP     Counter:       8   Parms: SM      L1      
 Computing Diagnostic #    221  AtPhCAPE     Counter:       8   Parms: SM      L1      
 Computing Diagnostic #    217  AtPhSens     Counter:       8   Parms: SM      L1      
 Computing Diagnostic #    218  AtPhEvap     Counter:       8   Parms: SM      L1      
 Computing Diagnostic #    219  AtPhTauX     Counter:       8   Parms: UM      L1      
           Vector  Mate for  AtPhTauX     Diagnostic #    220  AtPhTauY exists 
 Computing Diagnostic #    220  AtPhTauY     Counter:       8   Parms: VM      L1      
           Vector  Mate for  AtPhTauY     Diagnostic #    219  AtPhTauX exists 
 Computing Diagnostic #    195  AtPh_SST     Counter:       8   Parms: SM      L1      
 Computing Diagnostic #    211  AtPhNTSR     Counter:       8   Parms: SM P    U1      
 Computing Diagnostic #    212  AtPhOLR      Counter:       8   Parms: SM P    U1      
 Computing Diagnostic #    214  AtPhNSSR     Counter:       8   Parms: SM P    L1      
 Computing Diagnostic #    215  AtPhDSLR     Counter:       8   Parms: SM P    L1      
 Computing Diagnostic #    216  AtPhUSLR     Counter:       8   Parms: SM P    L1      
 Computing Diagnostic #     29  UVEL         Counter:       8   Parms: UUR     MR      
           Vector  Mate for  UVEL         Diagnostic #     30  VVEL     exists 
 Computing Diagnostic #     30  VVEL         Counter:       8   Parms: VVR     MR      
           Vector  Mate for  VVEL         Diagnostic #     29  UVEL     exists 
 Computing Diagnostic #     31  WVEL         Counter:       8   Parms: WM      LR      
 Computing Diagnostic #     26  THETA        Counter:       8   Parms: SMR     MR      
 Computing Diagnostic #     27  SALT         Counter:       8   Parms: SMR     MR      
 Computing Diagnostic #     34  UVELSQ       Counter:       8   Parms: UURP    MR      
           Vector  Mate for  UVELSQ       Diagnostic #     35  VVELSQ   exists 
 Computing Diagnostic #     35  VVELSQ       Counter:       8   Parms: VVRP    MR      
           Vector  Mate for  VVELSQ       Diagnostic #     34  UVELSQ   exists 
 Computing Diagnostic #     36  WVELSQ       Counter:       8   Parms: WM P    LR      
 Computing Diagnostic #     32  THETASQ      Counter:       8   Parms: SMRP    MR      
 Computing Diagnostic #     33  SALTSQ       Counter:       8   Parms: SMRP    MR      
 Computing Diagnostic #     43  UVELMASS     Counter:       8   Parms: UUr     MR      
           Vector  Mate for  UVELMASS     Diagnostic #     44  VVELMASS exists 
 Computing Diagnostic #     44  VVELMASS     Counter:       8   Parms: VVr     MR      
           Vector  Mate for  VVELMASS     Diagnostic #     43  UVELMASS exists 
 Computing Diagnostic #     37  UE_VEL_C     Counter:       8   Parms: UMR     MR      
           Vector  Mate for  UE_VEL_C     Diagnostic #     38  VN_VEL_C exists 
 Computing Diagnostic #     38  VN_VEL_C     Counter:       8   Parms: VMR     MR      
           Vector  Mate for  VN_VEL_C     Diagnostic #     37  UE_VEL_C exists 
 Computing Diagnostic #     39  UV_VEL_C     Counter:       8   Parms: UMR     MR      
           Vector  Mate for  UV_VEL_C     Diagnostic #     39  UV_VEL_C exists 
 Computing Diagnostic #     41  WU_VEL       Counter:       8   Parms: WU      LR      
 Computing Diagnostic #     42  WV_VEL       Counter:       8   Parms: WV      LR      
 Computing Diagnostic #     54  UVELTH       Counter:       8   Parms: UUR     MR      
           Vector  Mate for  UVELTH       Diagnostic #     55  VVELTH   exists 
 Computing Diagnostic #     55  VVELTH       Counter:       8   Parms: VVR     MR      
           Vector  Mate for  VVELTH       Diagnostic #     54  UVELTH   exists 
 Computing Diagnostic #     56  WVELTH       Counter:       8   Parms: WM      LR      
 Computing Diagnostic #     28  RELHUM       Counter:       8   Parms: SMR     MR      
 Computing Diagnostic #    196  AtPhdTdt     Counter:       8   Parms: SMR     MR      
 Computing Diagnostic #    197  AtPhdQdt     Counter:       8   Parms: SMR     MR      
 Computing Diagnostic #    198  AtPhdUdt     Counter:       8   Parms: UMR     MR      
           Vector  Mate for  AtPhdUdt     Diagnostic #    199  AtPhdVdt exists 
 Computing Diagnostic #    199  AtPhdVdt     Counter:       8   Parms: VMR     MR      
           Vector  Mate for  AtPhdVdt     Diagnostic #    198  AtPhdUdt exists 
 Computing Diagnostic #    232  AtPhDisH     Counter:       8   Parms: SMR     MR      
 Computing Diagnostic #    100  HeatDiss     Counter:       8   Parms: SM      MR      
 Computing Diagnostic #     99  MoistCor     Counter:       8   Parms: SM      MR      
 Computing Diagnostic #    194  SHAP_dKE     Counter:       8   Parms: SMr     MR      
 Computing Diagnostic #    205  AtPhdTrd     Counter:       8   Parms: SMR     MR      
 Computing Diagnostic #    204  AtPhdTlc     Counter:       8   Parms: SMR     MR      
 Computing Diagnostic #    229  AtPhdTcv     Counter:       8   Parms: SMR     MR      
 Computing Diagnostic #    206  AtPhNSR      Counter:       8   Parms: SM      LX      
 Computing Diagnostic #    207  AtPhNLR      Counter:       8   Parms: SM      LX      
 Computing Diagnostic #    208  AtPhDSR      Counter:       8   Parms: SM P    LX      
 Computing Diagnostic #    209  AtPhDLR      Counter:       8   Parms: SM P    LX      
 Computing Diagnostic #    164  Um_Advec     Counter:       8   Parms: UUR     MR      
           Vector  Mate for  Um_Advec     Diagnostic #    165  Vm_Advec exists 
 Computing Diagnostic #    165  Vm_Advec     Counter:       8   Parms: VVR     MR      
           Vector  Mate for  Vm_Advec     Diagnostic #    164  Um_Advec exists 
 Computing Diagnostic #    168  Um_dPHdx     Counter:       8   Parms: UUR     MR      
           Vector  Mate for  Um_dPHdx     Diagnostic #    169  Vm_dPHdy exists 
 Computing Diagnostic #    169  Vm_dPHdy     Counter:       8   Parms: VVR     MR      
           Vector  Mate for  Vm_dPHdy     Diagnostic #    168  Um_dPHdx exists 
 Computing Diagnostic #    170  Um_Ext       Counter:       8   Parms: UUR     MR      
           Vector  Mate for  Um_Ext       Diagnostic #    171  Vm_Ext   exists 
 Computing Diagnostic #    171  Vm_Ext       Counter:       8   Parms: VVR     MR      
           Vector  Mate for  Vm_Ext       Diagnostic #    170  Um_Ext   exists 
 Computing Diagnostic #    192  SHAP_dU      Counter:       8   Parms: UUR     MR      
           Vector  Mate for  SHAP_dU      Diagnostic #    193  SHAP_dV  exists 
 Computing Diagnostic #    193  SHAP_dV      Counter:       8   Parms: VVR     MR      
           Vector  Mate for  SHAP_dV      Diagnostic #    192  SHAP_dU  exists 
 Computing Diagnostic #    174  Um_AdvRe     Counter:       8   Parms: UUR     MR      
           Vector  Mate for  Um_AdvRe     Diagnostic #    175  Vm_AdvRe exists 
 Computing Diagnostic #    175  Vm_AdvRe     Counter:       8   Parms: VVR     MR      
           Vector  Mate for  Vm_AdvRe     Diagnostic #    174  Um_AdvRe exists 
 Computing Diagnostic #    172  Um_AdvZ3     Counter:       8   Parms: UUR     MR      
           Vector  Mate for  Um_AdvZ3     Diagnostic #    173  Vm_AdvZ3 exists 
 Computing Diagnostic #    173  Vm_AdvZ3     Counter:       8   Parms: VVR     MR      
           Vector  Mate for  Vm_AdvZ3     Diagnostic #    172  Um_AdvZ3 exists 
 Computing Diagnostic #    107  AB_gU        Counter:       8   Parms: UUR     MR      
           Vector  Mate for  AB_gU        Diagnostic #    108  AB_gV    exists 
 Computing Diagnostic #    108  AB_gV        Counter:       8   Parms: VVR     MR      
           Vector  Mate for  AB_gV        Diagnostic #    107  AB_gU    exists 
 Computing Diagnostic #    198  AtPhdUdt     Counter:       8   Parms: UMR     MR      
           Vector  Mate for  AtPhdUdt     Diagnostic #    199  AtPhdVdt exists 
 Computing Diagnostic #    199  AtPhdVdt     Counter:       8   Parms: VMR     MR      
           Vector  Mate for  AtPhdVdt     Diagnostic #    198  AtPhdUdt exists 
 Computing Diagnostic #    166  Um_Cori      Counter:       8   Parms: UUR     MR      
           Vector  Mate for  Um_Cori      Diagnostic #    167  Vm_Cori  exists 
 Computing Diagnostic #    167  Vm_Cori      Counter:       8   Parms: VVR     MR      
           Vector  Mate for  Vm_Cori      Diagnostic #    166  Um_Cori  exists 
 Compute Stats, Diag. #     23  ETAN      vol(   0 ): 4.079E+15  Parms: SM      M1      
 Compute Stats, Diag. #     26  THETA     vol(   0 ): 4.079E+20  Parms: SMR     MR      
 Compute Stats, Diag. #     27  SALT      vol(   0 ): 4.079E+20  Parms: SMR     MR      
 Compute Stats, Diag. #     28  RELHUM    vol(   0 ): 4.079E+20  Parms: SMR     MR      
 Compute Stats, Diag. #     37  UE_VEL_C  vol(   0 ): 4.079E+20  Parms: UMR     MR      
 Compute Stats, Diag. #     38  VN_VEL_C  vol(   0 ): 4.079E+20  Parms: VMR     MR      
 Compute Stats, Diag. #     31  WVEL      vol(   0 ): 4.079E+20  Parms: WM      LR      
 Compute Stats, Diag. #    196  AtPhdTdt  vol(   0 ): 4.079E+20  Parms: SMR     MR      
 Compute Stats, Diag. #    197  AtPhdQdt  vol(   0 ): 4.079E+20  Parms: SMR     MR      
 Compute Stats, Diag. #    198  AtPhdUdt  vol(   0 ): 4.079E+20  Parms: UMR     MR      
 Compute Stats, Diag. #    199  AtPhdVdt  vol(   0 ): 4.079E+20  Parms: VMR     MR      
 Compute Stats, Diag. #    230  AtPhdtTg  vol(   0 ): 4.079E+20  Parms: SMR     MR      
 Compute Stats, Diag. #    231  AtPhdtQg  vol(   0 ): 4.079E+20  Parms: SMR     MR      
 Compute Stats, Diag. #    200  AtPhDifT  vol(   0 ): 4.079E+20  Parms: WM      LR      
 Compute Stats, Diag. #    201  AtPhDifM  vol(   0 ): 4.079E+20  Parms: WM      LR      
 Compute Stats, Diag. #    232  AtPhDisH  vol(   0 ): 4.079E+20  Parms: SMR     MR      
 Compute Stats, Diag. #    100  HeatDiss  vol(   0 ): 4.079E+20  Parms: SM      MR      
 Compute Stats, Diag. #     99  MoistCor  vol(   0 ): 4.079E+20  Parms: SM      MR      
 Compute Stats, Diag. #    194  SHAP_dKE  vol(   0 ): 4.079E+20  Parms: SMr     MR      
 Compute Stats, Diag. #    205  AtPhdTrd  vol(   0 ): 4.079E+20  Parms: SMR     MR      
 Compute Stats, Diag. #    204  AtPhdTlc  vol(   0 ): 4.079E+20  Parms: SMR     MR      
 Compute Stats, Diag. #    229  AtPhdTcv  vol(   0 ): 4.079E+20  Parms: SMR     MR      
 Compute Stats, Diag. #    206  AtPhNSR   vol(   0 ): 1.672E+17  Parms: SM      LX      
 Compute Stats, Diag. #    207  AtPhNLR   vol(   0 ): 1.672E+17  Parms: SM      LX      
 Compute Stats, Diag. #    208  AtPhDSR   vol(   0 ): 1.672E+17  Parms: SM P    LX      
 Compute Stats, Diag. #    209  AtPhDLR   vol(   0 ): 1.672E+17  Parms: SM P    LX      
 Compute Stats, Diag. #    217  AtPhSens  vol(   0 ): 4.079E+15  Parms: SM      L1      
 Compute Stats, Diag. #    218  AtPhEvap  vol(   0 ): 4.079E+15  Parms: SM      L1      
 Compute Stats, Diag. #    219  AtPhTauX  vol(   0 ): 4.079E+15  Parms: UM      L1      
 Compute Stats, Diag. #    220  AtPhTauY  vol(   0 ): 4.079E+15  Parms: VM      L1      
 Compute Stats, Diag. #    202  AtPhCnvP  vol(   0 ): 4.079E+15  Parms: SM      L1      
 Compute Stats, Diag. #    203  AtPhLscP  vol(   0 ): 4.079E+15  Parms: SM      L1      
 Compute Stats, Diag. #    221  AtPhCAPE  vol(   0 ): 4.079E+15  Parms: SM      L1      
 Compute Stats, Diag. #    195  AtPh_SST  vol(   0 ): 4.079E+15  Parms: SM      L1      
 Compute Stats, Diag. #    211  AtPhNTSR  vol(   0 ): 4.079E+15  Parms: SM P    U1      
 Compute Stats, Diag. #    212  AtPhOLR   vol(   0 ): 4.079E+15  Parms: SM P    U1      
 Compute Stats, Diag. #    214  AtPhNSSR  vol(   0 ): 4.079E+15  Parms: SM P    L1      
 Compute Stats, Diag. #    215  AtPhDSLR  vol(   0 ): 4.079E+15  Parms: SM P    L1      
 Compute Stats, Diag. #    216  AtPhUSLR  vol(   0 ): 4.079E+15  Parms: SM P    L1      
(PID.TID 0000.0001) DIAGSTATS_CLOSE_IO: close file: dynStDiag.0000129600.txt , unit=     9
(PID.TID 0000.0001) DIAGSTATS_CLOSE_IO: close file: phyStDiag.0000129600.txt , unit=    10
(PID.TID 0000.0001) DIAGSTATS_CLOSE_IO: close file: flxStDiag.0000129600.txt , unit=    16
(PID.TID 0000.0001) %CHECKPOINT    129608 ckptA
(PID.TID 0000.0001)   Seconds in section "ALL                    [THE_MODEL_MAIN]":
(PID.TID 0000.0001)           User time:   49.446481865365058
(PID.TID 0000.0001)         System time:  0.49592499993741512
(PID.TID 0000.0001)     Wall clock time:   50.112455129623413
(PID.TID 0000.0001)          No. starts:           1
(PID.TID 0000.0001)           No. stops:           1
(PID.TID 0000.0001)   Seconds in section "INITIALISE_FIXED       [THE_MODEL_MAIN]":
(PID.TID 0000.0001)           User time:  0.46093000145629048
(PID.TID 0000.0001)         System time:  2.89960000663995743E-002
(PID.TID 0000.0001)     Wall clock time:  0.50303101539611816
(PID.TID 0000.0001)          No. starts:           1
(PID.TID 0000.0001)           No. stops:           1
(PID.TID 0000.0001)   Seconds in section "THE_MAIN_LOOP          [THE_MODEL_MAIN]":
(PID.TID 0000.0001)           User time:   48.985551863908768
(PID.TID 0000.0001)         System time:  0.46692899987101555
(PID.TID 0000.0001)     Wall clock time:   49.609383106231689
(PID.TID 0000.0001)          No. starts:           1
(PID.TID 0000.0001)           No. stops:           1
(PID.TID 0000.0001)   Seconds in section "INITIALISE_VARIA    [THE_MAIN_LOOP]":
(PID.TID 0000.0001)           User time:   1.5637619793415070
(PID.TID 0000.0001)         System time:  0.10098400339484215
(PID.TID 0000.0001)     Wall clock time:   1.6857769489288330
(PID.TID 0000.0001)          No. starts:           1
(PID.TID 0000.0001)           No. stops:           1
(PID.TID 0000.0001)   Seconds in section "MAIN LOOP           [THE_MAIN_LOOP]":
(PID.TID 0000.0001)           User time:   47.421789884567261
(PID.TID 0000.0001)         System time:  0.36594499647617340
(PID.TID 0000.0001)     Wall clock time:   47.923576831817627
(PID.TID 0000.0001)          No. starts:           1
(PID.TID 0000.0001)           No. stops:           1
(PID.TID 0000.0001)   Seconds in section "MAIN_DO_LOOP        [THE_MAIN_LOOP]":
(PID.TID 0000.0001)           User time:   47.421789884567261
(PID.TID 0000.0001)         System time:  0.36594499647617340
(PID.TID 0000.0001)     Wall clock time:   47.923494100570679
(PID.TID 0000.0001)          No. starts:           8
(PID.TID 0000.0001)           No. stops:           8
(PID.TID 0000.0001)   Seconds in section "FORWARD_STEP        [MAIN_DO_LOOP]":
(PID.TID 0000.0001)           User time:   47.421789884567261
(PID.TID 0000.0001)         System time:  0.36594499647617340
(PID.TID 0000.0001)     Wall clock time:   47.923349380493164
(PID.TID 0000.0001)          No. starts:           8
(PID.TID 0000.0001)           No. stops:           8
(PID.TID 0000.0001)   Seconds in section "DO_STATEVARS_DIAGS  [FORWARD_STEP]":
(PID.TID 0000.0001)           User time:   3.2305109500885010
(PID.TID 0000.0001)         System time:  1.00000202655792236E-003
(PID.TID 0000.0001)     Wall clock time:   3.2400083541870117
(PID.TID 0000.0001)          No. starts:          24
(PID.TID 0000.0001)           No. stops:          24
(PID.TID 0000.0001)   Seconds in section "LOAD_FIELDS_DRIVER  [FORWARD_STEP]":
(PID.TID 0000.0001)           User time:  3.89909744262695313E-002
(PID.TID 0000.0001)         System time:   0.0000000000000000
(PID.TID 0000.0001)     Wall clock time:  3.72741222381591797E-002
(PID.TID 0000.0001)          No. starts:           8
(PID.TID 0000.0001)           No. stops:           8
(PID.TID 0000.0001)   Seconds in section "DO_ATMOSPHERIC_PHYS [FORWARD_STEP]":
(PID.TID 0000.0001)           User time:   7.9717912673950195
(PID.TID 0000.0001)         System time:  0.23296499252319336
(PID.TID 0000.0001)     Wall clock time:   8.2510218620300293
(PID.TID 0000.0001)          No. starts:           8
(PID.TID 0000.0001)           No. stops:           8
(PID.TID 0000.0001)   Seconds in section "ATM_PHYS_DRIVER [DO_ATMOSPHERIC_PHYS]":
(PID.TID 0000.0001)           User time:   7.8138163089752197
(PID.TID 0000.0001)         System time:  0.23296499252319336
(PID.TID 0000.0001)     Wall clock time:   8.0908482074737549
(PID.TID 0000.0001)          No. starts:           8
(PID.TID 0000.0001)           No. stops:           8
(PID.TID 0000.0001)   Seconds in section "DO_OCEANIC_PHYS     [FORWARD_STEP]":
(PID.TID 0000.0001)           User time:  2.99906730651855469E-003
(PID.TID 0000.0001)         System time:   0.0000000000000000
(PID.TID 0000.0001)     Wall clock time:  3.28731536865234375E-003
(PID.TID 0000.0001)          No. starts:           8
(PID.TID 0000.0001)           No. stops:           8
(PID.TID 0000.0001)   Seconds in section "DYNAMICS            [FORWARD_STEP]":
(PID.TID 0000.0001)           User time:   11.018317937850952
(PID.TID 0000.0001)         System time:  9.99003648757934570E-004
(PID.TID 0000.0001)     Wall clock time:   11.043898105621338
(PID.TID 0000.0001)          No. starts:           8
(PID.TID 0000.0001)           No. stops:           8
(PID.TID 0000.0001)   Seconds in section "UPDATE_R_STAR       [FORWARD_STEP]":
(PID.TID 0000.0001)           User time:  0.61691379547119141
(PID.TID 0000.0001)         System time:   0.0000000000000000
(PID.TID 0000.0001)     Wall clock time:  0.62019729614257813
(PID.TID 0000.0001)          No. starts:           8
(PID.TID 0000.0001)           No. stops:           8
(PID.TID 0000.0001)   Seconds in section "UPDATE_CG2D         [FORWARD_STEP]":
(PID.TID 0000.0001)           User time:  0.23396348953247070
(PID.TID 0000.0001)         System time:   0.0000000000000000
(PID.TID 0000.0001)     Wall clock time:  0.23391485214233398
(PID.TID 0000.0001)          No. starts:           8
(PID.TID 0000.0001)           No. stops:           8
(PID.TID 0000.0001)   Seconds in section "SOLVE_FOR_PRESSURE  [FORWARD_STEP]":
(PID.TID 0000.0001)           User time:  0.57691192626953125
(PID.TID 0000.0001)         System time:   0.0000000000000000
(PID.TID 0000.0001)     Wall clock time:  0.57911038398742676
(PID.TID 0000.0001)          No. starts:           8
(PID.TID 0000.0001)           No. stops:           8
(PID.TID 0000.0001)   Seconds in section "MOM_CORRECTION_STEP [FORWARD_STEP]":
(PID.TID 0000.0001)           User time:   4.8462581634521484
(PID.TID 0000.0001)         System time:   0.0000000000000000
(PID.TID 0000.0001)     Wall clock time:   4.8574519157409668
(PID.TID 0000.0001)          No. starts:           8
(PID.TID 0000.0001)           No. stops:           8
(PID.TID 0000.0001)   Seconds in section "SHAP_FILT_UV       [MOM_CORR_STEP]":
(PID.TID 0000.0001)           User time:   4.4583191871643066
(PID.TID 0000.0001)         System time:   0.0000000000000000
(PID.TID 0000.0001)     Wall clock time:   4.4685938358306885
(PID.TID 0000.0001)          No. starts:           8
(PID.TID 0000.0001)           No. stops:           8
(PID.TID 0000.0001)   Seconds in section "INTEGR_CONTINUITY   [FORWARD_STEP]":
(PID.TID 0000.0001)           User time:  0.73189640045166016
(PID.TID 0000.0001)         System time:  3.00000607967376709E-003
(PID.TID 0000.0001)     Wall clock time:  0.73559331893920898
(PID.TID 0000.0001)          No. starts:           8
(PID.TID 0000.0001)           No. stops:           8
(PID.TID 0000.0001)   Seconds in section "CALC_R_STAR         [FORWARD_STEP]":
(PID.TID 0000.0001)           User time:  5.09848594665527344E-002
(PID.TID 0000.0001)         System time:   0.0000000000000000
(PID.TID 0000.0001)     Wall clock time:  5.31756877899169922E-002
(PID.TID 0000.0001)          No. starts:           8
(PID.TID 0000.0001)           No. stops:           8
(PID.TID 0000.0001)   Seconds in section "BLOCKING_EXCHANGES  [FORWARD_STEP]":
(PID.TID 0000.0001)           User time:  0.56391191482543945
(PID.TID 0000.0001)         System time:   0.0000000000000000
(PID.TID 0000.0001)     Wall clock time:  0.56393980979919434
(PID.TID 0000.0001)          No. starts:          16
(PID.TID 0000.0001)           No. stops:          16
(PID.TID 0000.0001)   Seconds in section "THERMODYNAMICS      [FORWARD_STEP]":
(PID.TID 0000.0001)           User time:   9.4995584487915039
(PID.TID 0000.0001)         System time:  6.99900090694427490E-003
(PID.TID 0000.0001)     Wall clock time:   9.5252025127410889
(PID.TID 0000.0001)          No. starts:           8
(PID.TID 0000.0001)           No. stops:           8
(PID.TID 0000.0001)   Seconds in section "TRC_CORRECTION_STEP [FORWARD_STEP]":
(PID.TID 0000.0001)           User time:   1.6847443580627441
(PID.TID 0000.0001)         System time:   0.0000000000000000
(PID.TID 0000.0001)     Wall clock time:   1.6919088363647461
(PID.TID 0000.0001)          No. starts:           8
(PID.TID 0000.0001)           No. stops:           8
(PID.TID 0000.0001)   Seconds in section "SHAP_FILT_TS       [TRC_CORR_STEP]":
(PID.TID 0000.0001)           User time:   1.6847443580627441
(PID.TID 0000.0001)         System time:   0.0000000000000000
(PID.TID 0000.0001)     Wall clock time:   1.6917383670806885
(PID.TID 0000.0001)          No. starts:           8
(PID.TID 0000.0001)           No. stops:           8
(PID.TID 0000.0001)   Seconds in section "MONITOR             [FORWARD_STEP]":
(PID.TID 0000.0001)           User time:   4.4443292617797852
(PID.TID 0000.0001)         System time:   0.0000000000000000
(PID.TID 0000.0001)     Wall clock time:   4.4541025161743164
(PID.TID 0000.0001)          No. starts:           8
(PID.TID 0000.0001)           No. stops:           8
(PID.TID 0000.0001)   Seconds in section "DO_THE_MODEL_IO     [FORWARD_STEP]":
(PID.TID 0000.0001)           User time:   1.7387351989746094
(PID.TID 0000.0001)         System time:  0.11098298430442810
(PID.TID 0000.0001)     Wall clock time:   1.8539776802062988
(PID.TID 0000.0001)          No. starts:           8
(PID.TID 0000.0001)           No. stops:           8
(PID.TID 0000.0001)   Seconds in section "DO_WRITE_PICKUP     [FORWARD_STEP]":
(PID.TID 0000.0001)           User time:  0.16797256469726563
(PID.TID 0000.0001)         System time:  9.99900698661804199E-003
(PID.TID 0000.0001)     Wall clock time:  0.17756032943725586
(PID.TID 0000.0001)          No. starts:           8
(PID.TID 0000.0001)           No. stops:           8
(PID.TID 0000.0001) // ======================================================
(PID.TID 0000.0001) // Tile <-> Tile communication statistics
(PID.TID 0000.0001) // ======================================================
(PID.TID 0000.0001) // o Tile number: 000001
(PID.TID 0000.0001) //         No. X exchanges =              0
(PID.TID 0000.0001) //            Max. X spins =              0
(PID.TID 0000.0001) //            Min. X spins =     1000000000
(PID.TID 0000.0001) //          Total. X spins =              0
(PID.TID 0000.0001) //            Avg. X spins =       0.00E+00
(PID.TID 0000.0001) //         No. Y exchanges =              0
(PID.TID 0000.0001) //            Max. Y spins =              0
(PID.TID 0000.0001) //            Min. Y spins =     1000000000
(PID.TID 0000.0001) //          Total. Y spins =              0
(PID.TID 0000.0001) //            Avg. Y spins =       0.00E+00
(PID.TID 0000.0001) // o Tile number: 000002
(PID.TID 0000.0001) //         No. X exchanges =              0
(PID.TID 0000.0001) //            Max. X spins =              0
(PID.TID 0000.0001) //            Min. X spins =     1000000000
(PID.TID 0000.0001) //          Total. X spins =              0
(PID.TID 0000.0001) //            Avg. X spins =       0.00E+00
(PID.TID 0000.0001) //         No. Y exchanges =              0
(PID.TID 0000.0001) //            Max. Y spins =              0
(PID.TID 0000.0001) //            Min. Y spins =     1000000000
(PID.TID 0000.0001) //          Total. Y spins =              0
(PID.TID 0000.0001) //            Avg. Y spins =       0.00E+00
(PID.TID 0000.0001) // o Tile number: 000003
(PID.TID 0000.0001) //         No. X exchanges =              0
(PID.TID 0000.0001) //            Max. X spins =              0
(PID.TID 0000.0001) //            Min. X spins =     1000000000
(PID.TID 0000.0001) //          Total. X spins =              0
(PID.TID 0000.0001) //            Avg. X spins =       0.00E+00
(PID.TID 0000.0001) //         No. Y exchanges =              0
(PID.TID 0000.0001) //            Max. Y spins =              0
(PID.TID 0000.0001) //            Min. Y spins =     1000000000
(PID.TID 0000.0001) //          Total. Y spins =              0
(PID.TID 0000.0001) //            Avg. Y spins =       0.00E+00
(PID.TID 0000.0001) // o Tile number: 000004
(PID.TID 0000.0001) //         No. X exchanges =              0
(PID.TID 0000.0001) //            Max. X spins =              0
(PID.TID 0000.0001) //            Min. X spins =     1000000000
(PID.TID 0000.0001) //          Total. X spins =              0
(PID.TID 0000.0001) //            Avg. X spins =       0.00E+00
(PID.TID 0000.0001) //         No. Y exchanges =              0
(PID.TID 0000.0001) //            Max. Y spins =              0
(PID.TID 0000.0001) //            Min. Y spins =     1000000000
(PID.TID 0000.0001) //          Total. Y spins =              0
(PID.TID 0000.0001) //            Avg. Y spins =       0.00E+00
(PID.TID 0000.0001) // o Tile number: 000005
(PID.TID 0000.0001) //         No. X exchanges =              0
(PID.TID 0000.0001) //            Max. X spins =              0
(PID.TID 0000.0001) //            Min. X spins =     1000000000
(PID.TID 0000.0001) //          Total. X spins =              0
(PID.TID 0000.0001) //            Avg. X spins =       0.00E+00
(PID.TID 0000.0001) //         No. Y exchanges =              0
(PID.TID 0000.0001) //            Max. Y spins =              0
(PID.TID 0000.0001) //            Min. Y spins =     1000000000
(PID.TID 0000.0001) //          Total. Y spins =              0
(PID.TID 0000.0001) //            Avg. Y spins =       0.00E+00
(PID.TID 0000.0001) // o Tile number: 000006
(PID.TID 0000.0001) //         No. X exchanges =              0
(PID.TID 0000.0001) //            Max. X spins =              0
(PID.TID 0000.0001) //            Min. X spins =     1000000000
(PID.TID 0000.0001) //          Total. X spins =              0
(PID.TID 0000.0001) //            Avg. X spins =       0.00E+00
(PID.TID 0000.0001) //         No. Y exchanges =              0
(PID.TID 0000.0001) //            Max. Y spins =              0
(PID.TID 0000.0001) //            Min. Y spins =     1000000000
(PID.TID 0000.0001) //          Total. Y spins =              0
(PID.TID 0000.0001) //            Avg. Y spins =       0.00E+00
(PID.TID 0000.0001) // o Thread number: 000001
(PID.TID 0000.0001) //            No. barriers =          20434
(PID.TID 0000.0001) //      Max. barrier spins =              1
(PID.TID 0000.0001) //      Min. barrier spins =              1
(PID.TID 0000.0001) //     Total barrier spins =          20434
(PID.TID 0000.0001) //      Avg. barrier spins =       1.00E+00
PROGRAM MAIN: Execution ended Normally
