(PID.TID 0000.0001) 
(PID.TID 0000.0001) // ======================================================
(PID.TID 0000.0001) //                      MITgcm UV
(PID.TID 0000.0001) //                      =========
(PID.TID 0000.0001) // ======================================================
(PID.TID 0000.0001) // execution environment starting up...
(PID.TID 0000.0001) 
(PID.TID 0000.0001) // MITgcmUV version:  checkpoint67e
(PID.TID 0000.0001) // Build user:        jmc
(PID.TID 0000.0001) // Build host:        baudelaire
(PID.TID 0000.0001) // Build date:        Wed Nov 28 18:27:09 EST 2018
(PID.TID 0000.0001) 
(PID.TID 0000.0001) // =======================================================
(PID.TID 0000.0001) // Execution Environment parameter file "eedata"
(PID.TID 0000.0001) // =======================================================
(PID.TID 0000.0001) ># Example "eedata" file
(PID.TID 0000.0001) ># Lines beginning "#" are comments
(PID.TID 0000.0001) ># nTx - No. threads per process in X
(PID.TID 0000.0001) ># nTy - No. threads per process in Y
(PID.TID 0000.0001) > &EEPARMS
(PID.TID 0000.0001) > useCubedSphereExchange=.TRUE.,
(PID.TID 0000.0001) > nTx=1,
(PID.TID 0000.0001) > nTy=1,
(PID.TID 0000.0001) >#debugMode=.TRUE.,
(PID.TID 0000.0001) > /
(PID.TID 0000.0001) ># Note: Some systems use & as the namelist terminator (as shown here).
(PID.TID 0000.0001) >#       Other systems use a / character.
(PID.TID 0000.0001) 
(PID.TID 0000.0001) // =======================================================
(PID.TID 0000.0001) // Computational Grid Specification ( see files "SIZE.h" )
(PID.TID 0000.0001) //                                  ( and "eedata"       )
(PID.TID 0000.0001) // =======================================================
(PID.TID 0000.0001)      nPx =    1 ; /* No. processes in X */
(PID.TID 0000.0001)      nPy =    1 ; /* No. processes in Y */
(PID.TID 0000.0001)      nSx =    6 ; /* No. tiles in X per process */
(PID.TID 0000.0001)      nSy =    1 ; /* No. tiles in Y per process */
(PID.TID 0000.0001)      sNx =   32 ; /* Tile size in X */
(PID.TID 0000.0001)      sNy =   32 ; /* Tile size in Y */
(PID.TID 0000.0001)      OLx =    4 ; /* Tile overlap distance in X */
(PID.TID 0000.0001)      OLy =    4 ; /* Tile overlap distance in Y */
(PID.TID 0000.0001)      nTx =    1 ; /* No. threads in X per process */
(PID.TID 0000.0001)      nTy =    1 ; /* No. threads in Y per process */
(PID.TID 0000.0001)       Nr =   40 ; /* No. levels in the vertical   */
(PID.TID 0000.0001)       Nx =  192 ; /* Total domain size in X ( = nPx*nSx*sNx ) */
(PID.TID 0000.0001)       Ny =   32 ; /* Total domain size in Y ( = nPy*nSy*sNy ) */
(PID.TID 0000.0001)   nTiles =    6 ; /* Total no. tiles per process ( = nSx*nSy ) */
(PID.TID 0000.0001)   nProcs =    1 ; /* Total no. processes ( = nPx*nPy ) */
(PID.TID 0000.0001) nThreads =    1 ; /* Total no. threads per process ( = nTx*nTy ) */
(PID.TID 0000.0001) usingMPI =    F ; /* Flag used to control whether MPI is in use */
(PID.TID 0000.0001)                   /*  note: To execute a program with MPI calls */
(PID.TID 0000.0001)                   /*  it must be launched appropriately e.g     */
(PID.TID 0000.0001)                   /*  "mpirun -np 64 ......"                    */
(PID.TID 0000.0001) useCoupler=    F ;/* Flag used to control communications with   */
(PID.TID 0000.0001)                   /*  other model components, through a coupler */
(PID.TID 0000.0001) debugMode =    F ; /* print debug msg. (sequence of S/R calls)  */
(PID.TID 0000.0001) printMapIncludesZeros=    F ; /* print zeros in Std.Output maps */
(PID.TID 0000.0001) maxLengthPrt1D=   65 /* maxLength of 1D array printed to StdOut */
(PID.TID 0000.0001) 
(PID.TID 0000.0001) // ======================================================
(PID.TID 0000.0001) // Mapping of tiles to threads
(PID.TID 0000.0001) // ======================================================
(PID.TID 0000.0001) // -o- Thread   1, tiles (   1:   6,   1:   1)
(PID.TID 0000.0001) 
(PID.TID 0000.0001) W2_READPARMS: file data.exch2 not found
(PID.TID 0000.0001) => use W2_EXCH2 default: regular 6-facets Cube
(PID.TID 0000.0001) W2_useE2ioLayOut=    T ;/* T: use Exch2 glob IO map; F: use model default */
(PID.TID 0000.0001) W2_mapIO        =  -1 ; /* select option for Exch2 global-IO map */
(PID.TID 0000.0001) W2_printMsg     =  -1 ; /* select option for printing information */
(PID.TID 0000.0001) ===== Start setting W2 TOPOLOGY:
(PID.TID 0000.0001)  write to log-file: w2_tile_topology.0000.log
(PID.TID 0000.0001) =====       setting W2 TOPOLOGY: Done
(PID.TID 0000.0001) 
(PID.TID 0000.0001)  INI_PARMS: opening model parameter file "data"
(PID.TID 0000.0001)  OPEN_COPY_DATA_FILE: opening file data
(PID.TID 0000.0001) // =======================================================
(PID.TID 0000.0001) // Parameter file "data"
(PID.TID 0000.0001) // =======================================================
(PID.TID 0000.0001) ># ====================
(PID.TID 0000.0001) ># | Model parameters |
(PID.TID 0000.0001) ># ====================
(PID.TID 0000.0001) >#
(PID.TID 0000.0001) ># Continuous equation parameters
(PID.TID 0000.0001) > &PARM01
(PID.TID 0000.0001) >#- MK: reference theta calculated from US Standard Atmosphere:
(PID.TID 0000.0001) > tRef= 287.7, 288.4, 289.3, 290.2, 291.3, 292.8, 294.5, 296.4, 298.5, 300.7,
(PID.TID 0000.0001) >       303.1, 305.7, 308.7, 312.0, 315.7, 320.1, 325.2, 330.9, 348.4, 371.0,
(PID.TID 0000.0001) >       397.3, 428.0, 463.5, 503.9, 553.4, 607.6, 665.2, 732.8, 807.8, 886.5,
(PID.TID 0000.0001) >       988.5, 1109.4, 1258.1, 1460.5, 1750.6, 2119.0, 2463.9, 2878.4, 3470.2, 4327.7,
(PID.TID 0000.0001) > sRef=40*0.,
(PID.TID 0000.0001) > viscAr=0.E1,
(PID.TID 0000.0001) > viscAh=0.E6,
(PID.TID 0000.0001) > viscA4=0.E17,
(PID.TID 0000.0001) > no_slip_sides=.FALSE.,
(PID.TID 0000.0001) > no_slip_bottom=.FALSE.,
(PID.TID 0000.0001) > diffKhT=0.E3,
(PID.TID 0000.0001) > diffKrT=0.,
(PID.TID 0000.0001) > diffK4T=0.E17,
(PID.TID 0000.0001) > diffKrS=0.E2,
(PID.TID 0000.0001) > diffKhS=0.E3,
(PID.TID 0000.0001) > diffK4S=0.E17,
(PID.TID 0000.0001) > buoyancyRelation='ATMOSPHERIC',
(PID.TID 0000.0001) > eosType='IDEALG',
(PID.TID 0000.0001) > atm_Cp=1004.64,
(PID.TID 0000.0001) > atm_Rq=0.6078,
(PID.TID 0000.0001) > integr_GeoPot=2,
(PID.TID 0000.0001) > selectFindRoSurf=1,
(PID.TID 0000.0001) > gravity=9.80,
(PID.TID 0000.0001) > implicitFreeSurface=.TRUE.,
(PID.TID 0000.0001) > exactConserv=.TRUE.,
(PID.TID 0000.0001) > select_rStar=2,
(PID.TID 0000.0001) > nonlinFreeSurf=4,
(PID.TID 0000.0001) > hFacInf=0.2,
(PID.TID 0000.0001) > hFacSup=2.0,
(PID.TID 0000.0001) > hFacMin=1.0,
(PID.TID 0000.0001) > uniformLin_PhiSurf=.FALSE.,
(PID.TID 0000.0001) > vectorInvariantMomentum=.TRUE.,
(PID.TID 0000.0001) > useAbsVorticity=.TRUE.,
(PID.TID 0000.0001) > selectVortScheme=3,
(PID.TID 0000.0001) > selectKEscheme=3,
(PID.TID 0000.0001) > addFrictionHeating=.TRUE.,
(PID.TID 0000.0001) >#tempAdvScheme=77,
(PID.TID 0000.0001) > saltAdvScheme=77,
(PID.TID 0000.0001) > staggerTimeStep=.TRUE.,
(PID.TID 0000.0001) > readBinaryPrec=64,
(PID.TID 0000.0001) > writeBinaryPrec=64,
(PID.TID 0000.0001) >#globalFiles=.TRUE.,
(PID.TID 0000.0001) > useSingleCpuIO=.TRUE.,
(PID.TID 0000.0001) > /
(PID.TID 0000.0001) >
(PID.TID 0000.0001) ># Elliptic solver parameters
(PID.TID 0000.0001) > &PARM02
(PID.TID 0000.0001) > cg2dMaxIters=200,
(PID.TID 0000.0001) > cg2dTargetResWunit=1.E-17,
(PID.TID 0000.0001) > /
(PID.TID 0000.0001) >
(PID.TID 0000.0001) ># Time stepping parameters
(PID.TID 0000.0001) > &PARM03
(PID.TID 0000.0001) > nIter0=4320000,
(PID.TID 0000.0001) ># to run 25 years:
(PID.TID 0000.0001) > nTimeSteps=4320000,
(PID.TID 0000.0001) > deltaTMom=36.,
(PID.TID 0000.0001) > deltaTtracer=180.,
(PID.TID 0000.0001) > deltaTFreeSurf=180.,
(PID.TID 0000.0001) > deltaTClock=180.,
(PID.TID 0000.0001) > abEps=0.1,
(PID.TID 0000.0001) > forcing_In_AB=.FALSE.,
(PID.TID 0000.0001) > cAdjFreq=0.,
(PID.TID 0000.0001) >#- long run (> 1.yr):
(PID.TID 0000.0001) ># chkptFreq =15552000.,
(PID.TID 0000.0001) ># pChkptFreq=31104000.,
(PID.TID 0000.0001) ># dumpFreq  =15552000.,
(PID.TID 0000.0001) ># monitorFreq= 864000.,
(PID.TID 0000.0001) >#- short run (~ months):
(PID.TID 0000.0001) > chkptFreq = 86400.,
(PID.TID 0000.0001) > pChkptFreq=2592000.,
(PID.TID 0000.0001) > dumpFreq  = 2592000.,
(PID.TID 0000.0001) >#- for testing:
(PID.TID 0000.0001) > nTimeSteps=10,
(PID.TID 0000.0001) > monitorFreq= 1.,
(PID.TID 0000.0001) > /
(PID.TID 0000.0001) >
(PID.TID 0000.0001) ># Gridding parameters
(PID.TID 0000.0001) > &PARM04
(PID.TID 0000.0001) > usingCurvilinearGrid=.TRUE.,
(PID.TID 0000.0001) > horizGridFile='dxC1_dXYa',
(PID.TID 0000.0001) > radius_fromHorizGrid=6370.E3,
(PID.TID 0000.0001) > delR= 2000., 3000., 3000., 3000., 4000., 5000., 5000., 5000., 5000., 5000.,
(PID.TID 0000.0001) >       5000., 5000., 5000., 5000., 5000., 5000., 5000., 4000., 4000., 3500.,
(PID.TID 0000.0001) >       3000., 2500., 2000., 1500., 1200., 800., 650., 500., 350., 250.,
(PID.TID 0000.0001) >       200., 150., 125., 100., 75., 50., 25., 15., 6., 3.,
(PID.TID 0000.0001) > top_Pres=1.,
(PID.TID 0000.0001) > /
(PID.TID 0000.0001) >
(PID.TID 0000.0001) ># Input datasets
(PID.TID 0000.0001) > &PARM05
(PID.TID 0000.0001) ># hydrogThetaFile='',
(PID.TID 0000.0001) ># hydrogSaltFile ='',
(PID.TID 0000.0001) > /
(PID.TID 0000.0001) 
(PID.TID 0000.0001)  INI_PARMS ; starts to read PARM01
(PID.TID 0000.0001)  INI_PARMS ; read PARM01 : OK
(PID.TID 0000.0001)  INI_PARMS ; starts to read PARM02
(PID.TID 0000.0001)  INI_PARMS ; read PARM02 : OK
(PID.TID 0000.0001)  INI_PARMS ; starts to read PARM03
(PID.TID 0000.0001)  INI_PARMS ; read PARM03 : OK
(PID.TID 0000.0001)  INI_PARMS ; starts to read PARM04
(PID.TID 0000.0001)  INI_PARMS ; read PARM04 : OK
(PID.TID 0000.0001)  INI_PARMS ; starts to read PARM05
(PID.TID 0000.0001)  INI_PARMS ; read PARM05 : OK
(PID.TID 0000.0001)  INI_PARMS: finished reading file "data"
(PID.TID 0000.0001)  PACKAGES_BOOT: opening data.pkg
(PID.TID 0000.0001)  OPEN_COPY_DATA_FILE: opening file data.pkg
(PID.TID 0000.0001) // =======================================================
(PID.TID 0000.0001) // Parameter file "data.pkg"
(PID.TID 0000.0001) // =======================================================
(PID.TID 0000.0001) ># Packages
(PID.TID 0000.0001) > &PACKAGES
(PID.TID 0000.0001) > useSHAP_FILT=.TRUE.,
(PID.TID 0000.0001) > useDiagnostics=.TRUE.,
(PID.TID 0000.0001) > useAtm_Phys=.TRUE.,
(PID.TID 0000.0001) > /
(PID.TID 0000.0001) 
(PID.TID 0000.0001)  PACKAGES_BOOT: finished reading data.pkg
(PID.TID 0000.0001)  PACKAGES_BOOT: On/Off package Summary
 --------  pkgs with a standard "usePKG" On/Off switch in "data.pkg":  --------
 pkg/shap_filt            compiled   and   used ( useSHAP_FILT             = T )
 pkg/atm_phys             compiled   and   used ( useAtm_Phys              = T )
 pkg/diagnostics          compiled   and   used ( useDiagnostics           = T )
 -------- pkgs without standard "usePKG" On/Off switch in "data.pkg":  --------
 pkg/generic_advdiff      compiled   and   used ( useGAD                   = T )
 pkg/mom_common           compiled   and   used ( momStepping              = T )
 pkg/mom_vecinv           compiled   and   used ( +vectorInvariantMomentum = T )
 pkg/mom_fluxform         compiled but not used ( & not vectorInvariantMom = F )
 pkg/monitor              compiled   and   used ( monitorFreq > 0.         = T )
 pkg/debug                compiled but not used ( debugMode                = F )
 pkg/exch2                compiled   and   used
 pkg/rw                   compiled   and   used
 pkg/mdsio                compiled   and   used
(PID.TID 0000.0001)  PACKAGES_BOOT: End of package Summary
(PID.TID 0000.0001) 
(PID.TID 0000.0001)  SHAP_FILT_READPARMS: opening data.shap
(PID.TID 0000.0001)  OPEN_COPY_DATA_FILE: opening file data.shap
(PID.TID 0000.0001) // =======================================================
(PID.TID 0000.0001) // Parameter file "data.shap"
(PID.TID 0000.0001) // =======================================================
(PID.TID 0000.0001) ># Shapiro Filter parameters
(PID.TID 0000.0001) > &SHAP_PARM01
(PID.TID 0000.0001) > shap_filt_uvStar=.FALSE.,
(PID.TID 0000.0001) > shap_filt_TrStagg=.TRUE.,
(PID.TID 0000.0001) > Shap_funct=2,
(PID.TID 0000.0001) > nShapT=4,
(PID.TID 0000.0001) > nShapS=0,
(PID.TID 0000.0001) > nShapUV=4,
(PID.TID 0000.0001) > nShapTrPhys=1,
(PID.TID 0000.0001) > nShapUVPhys=0,
(PID.TID 0000.0001) > Shap_TrLength=140000.,
(PID.TID 0000.0001) >#Shap_TrLength=115000.,
(PID.TID 0000.0001) >#Shap_uvLength=110000.,
(PID.TID 0000.0001) >#Shap_Trtau=5400.,
(PID.TID 0000.0001) >#Shap_uvtau=5400.,
(PID.TID 0000.0001) > Shap_Trtau=1800.,
(PID.TID 0000.0001) > Shap_uvtau= 900.,
(PID.TID 0000.0001) > /
(PID.TID 0000.0001) >
(PID.TID 0000.0001) 
(PID.TID 0000.0001)  SHAP_FILT_READPARMS: finished reading data.shap
(PID.TID 0000.0001) Shap_funct =   /* select Shapiro filter function */
(PID.TID 0000.0001)                       2
(PID.TID 0000.0001)     ;
(PID.TID 0000.0001) nShapT =   /* power of Shapiro filter for Temperat */
(PID.TID 0000.0001)                       4
(PID.TID 0000.0001)     ;
(PID.TID 0000.0001) nShapS =   /* power of Shapiro filter for Salinity */
(PID.TID 0000.0001)                       0
(PID.TID 0000.0001)     ;
(PID.TID 0000.0001) nShapUV =   /* power of Shapiro filter for momentum */
(PID.TID 0000.0001)                       4
(PID.TID 0000.0001)     ;
(PID.TID 0000.0001) shap_filt_uvStar = /* apply filter before Press. Solver */
(PID.TID 0000.0001)                   F
(PID.TID 0000.0001)     ;
(PID.TID 0000.0001) shap_filt_TrStagg = /* filter T,S before calc PhiHyd (staggerTimeStep) */
(PID.TID 0000.0001)                   T
(PID.TID 0000.0001)     ;
(PID.TID 0000.0001) Shap_alwaysExchUV = /* always exch(U,V)    nShapUV times*/
(PID.TID 0000.0001)                   F
(PID.TID 0000.0001)     ;
(PID.TID 0000.0001) Shap_alwaysExchTr = /* always exch(Tracer) nShapTr times*/
(PID.TID 0000.0001)                   F
(PID.TID 0000.0001)     ;
(PID.TID 0000.0001) nShapTrPhys =   /* power of physical-space filter (Tracer) */
(PID.TID 0000.0001)                       1
(PID.TID 0000.0001)     ;
(PID.TID 0000.0001) nShapUVPhys =   /* power of physical-space filter (Momentum) */
(PID.TID 0000.0001)                       0
(PID.TID 0000.0001)     ;
(PID.TID 0000.0001) Shap_Trtau =   /* time scale of Shapiro filter (Tracer) */
(PID.TID 0000.0001)                 1.800000000000000E+03
(PID.TID 0000.0001)     ;
(PID.TID 0000.0001) Shap_TrLength =   /* Length scale of Shapiro filter (Tracer) */
(PID.TID 0000.0001)                 1.400000000000000E+05
(PID.TID 0000.0001)     ;
(PID.TID 0000.0001) Shap_uvtau =   /* time scale of Shapiro filter (Momentum) */
(PID.TID 0000.0001)                 9.000000000000000E+02
(PID.TID 0000.0001)     ;
(PID.TID 0000.0001) Shap_uvLength =   /* Length scale of Shapiro filter (Momentum) */
(PID.TID 0000.0001)                 0.000000000000000E+00
(PID.TID 0000.0001)     ;
(PID.TID 0000.0001) Shap_noSlip =  /* No-slip parameter (0=Free-slip ; 1=No-slip)*/
(PID.TID 0000.0001)                 0.000000000000000E+00
(PID.TID 0000.0001)     ;
(PID.TID 0000.0001) Shap_diagFreq =   /* Frequency^-1 for diagnostic output (s)*/
(PID.TID 0000.0001)                 0.000000000000000E+00
(PID.TID 0000.0001)     ;
(PID.TID 0000.0001) ATM_PHYS_READPARMS: opening data.atm_phys
(PID.TID 0000.0001)  OPEN_COPY_DATA_FILE: opening file data.atm_phys
(PID.TID 0000.0001) // =======================================================
(PID.TID 0000.0001) // Parameter file "data.atm_phys"
(PID.TID 0000.0001) // =======================================================
(PID.TID 0000.0001) >#
(PID.TID 0000.0001) > &ATM_PHYS_PARM01
(PID.TID 0000.0001) >#atmPhys_addTendT=.FALSE.,
(PID.TID 0000.0001) >#atmPhys_addTendS=.FALSE.,
(PID.TID 0000.0001) >#atmPhys_addTendU=.FALSE.,
(PID.TID 0000.0001) >#atmPhys_addTendV=.FALSE.,
(PID.TID 0000.0001) > atmPhys_tauDampUV = 86400.,
(PID.TID 0000.0001) > atmPhys_dampUVfac = 21*0., 0.0340, 0.0364, 0.0390, 0.0419, 0.0451, 0.0476, 0.05, 0.0526,
(PID.TID 0000.0001) >       0.0556, 0.0588, 0.0625, 0.0667, 0.0714, 0.0769, 0.0833, 0.1, 0.25, 0.5618, 0.625,
(PID.TID 0000.0001) >#- initial SST file:
(PID.TID 0000.0001) > atmPhys_SSTFile='SST_APE_plus2K.bin',
(PID.TID 0000.0001) >#- 3D ozone vmr file:
(PID.TID 0000.0001) > atmPhys_ozoneFile='ape_ozone_in.bin'
(PID.TID 0000.0001) >#- Q-flux file:
(PID.TID 0000.0001) > atmPhys_QflxFile='Qflux_diagnosed.bin',
(PID.TID 0000.0001) >#- update SST (default = False = keep the same SST):
(PID.TID 0000.0001) > atmPhys_stepSST=.TRUE.,
(PID.TID 0000.0001) > /
(PID.TID 0000.0001) 
(PID.TID 0000.0001) ATM_PHYS_READPARMS: finished reading data.atm_phys
(PID.TID 0000.0001)  DIAGNOSTICS_READPARMS: opening data.diagnostics
(PID.TID 0000.0001)  OPEN_COPY_DATA_FILE: opening file data.diagnostics
(PID.TID 0000.0001) // =======================================================
(PID.TID 0000.0001) // Parameter file "data.diagnostics"
(PID.TID 0000.0001) // =======================================================
(PID.TID 0000.0001) ># Diagnostic Package Choices
(PID.TID 0000.0001) >#--------------------
(PID.TID 0000.0001) >#  dumpAtLast (logical): always write output at the end of simulation (default=F)
(PID.TID 0000.0001) >#  diag_mnc   (logical): write to NetCDF files (default=useMNC)
(PID.TID 0000.0001) >#--for each output-stream:
(PID.TID 0000.0001) >#  fileName(n) : prefix of the output file name (max 80c long) for outp.stream n
(PID.TID 0000.0001) >#  frequency(n):< 0 : write snap-shot output every |frequency| seconds
(PID.TID 0000.0001) >#               > 0 : write time-average output every frequency seconds
(PID.TID 0000.0001) >#  timePhase(n)     : write at time = timePhase + multiple of |frequency|
(PID.TID 0000.0001) >#    averagingFreq  : frequency (in s) for periodic averaging interval
(PID.TID 0000.0001) >#    averagingPhase : phase     (in s) for periodic averaging interval
(PID.TID 0000.0001) >#    repeatCycle    : number of averaging intervals in 1 cycle
(PID.TID 0000.0001) >#  levels(:,n) : list of levels to write to file (Notes: declared as REAL)
(PID.TID 0000.0001) >#                when this entry is missing, select all common levels of this list
(PID.TID 0000.0001) >#  fields(:,n) : list of selected diagnostics fields (8.c) in outp.stream n
(PID.TID 0000.0001) >#                (see "available_diagnostics.log" file for the full list of diags)
(PID.TID 0000.0001) >#  missing_value(n) : missing value for real-type fields in output file "n"
(PID.TID 0000.0001) >#  fileFlags(n)     : specific code (8c string) for output file "n"
(PID.TID 0000.0001) >#--------------------
(PID.TID 0000.0001) > &DIAGNOSTICS_LIST
(PID.TID 0000.0001) ># diag_mnc     = .FALSE.,
(PID.TID 0000.0001) >#--
(PID.TID 0000.0001) >  fields(1:16,1) = 'ETAN    ','ETANSQ  ','DETADT2 ',
(PID.TID 0000.0001) >                   'AtPhCnvP','AtPhLscP','AtPhCAPE',
(PID.TID 0000.0001) >                   'AtPhSens','AtPhEvap','AtPhTauX','AtPhTauY',
(PID.TID 0000.0001) >                   'AtPh_SST','AtPhNTSR','AtPhOLR ',
(PID.TID 0000.0001) >                   'AtPhNSSR','AtPhDSLR','AtPhUSLR',
(PID.TID 0000.0001) >   fileName(1) = 'surfDiag',
(PID.TID 0000.0001) ># fileFlags(1) = 'D       ',
(PID.TID 0000.0001) >  frequency(1) = 2592000.,
(PID.TID 0000.0001) ># ( = 1 month)
(PID.TID 0000.0001) >#-
(PID.TID 0000.0001) >  fields(1:21,2) = 'UVEL    ','VVEL    ','WVEL    ','THETA   ','SALT    ',
(PID.TID 0000.0001) >                   'UVELSQ  ','VVELSQ  ','WVELSQ  ','THETASQ ','SALTSQ  ',
(PID.TID 0000.0001) >                   'UVELMASS','VVELMASS','UE_VEL_C','VN_VEL_C','UV_VEL_C',
(PID.TID 0000.0001) >                   'WU_VEL  ','WV_VEL  ','UVELTH  ','VVELTH  ','WVELTH  ',
(PID.TID 0000.0001) >                   'RELHUM  ',
(PID.TID 0000.0001) >#                  'ADVx_TH ','ADVy_TH ','ADVr_TH ',
(PID.TID 0000.0001) >#                  'ADVx_SLT','ADVy_SLT','ADVr_SLT',
(PID.TID 0000.0001) >   fileName(2) = 'dynDiag',
(PID.TID 0000.0001) >  frequency(2) = 2592000.,
(PID.TID 0000.0001) ># ( = 1 month)
(PID.TID 0000.0001) >#-
(PID.TID 0000.0001) >  fields(1:11,3) = 'AtPhdTdt','AtPhdQdt','AtPhdUdt','AtPhdVdt',
(PID.TID 0000.0001) >#                  'AtPhdtTg','AtPhdtQg','AtPhDifT','AtPhDifM',
(PID.TID 0000.0001) >                   'AtPhDisH','HeatDiss','MoistCor','SHAP_dKE',
(PID.TID 0000.0001) >                   'AtPhdTrd','AtPhdTlc','AtPhdTcv',
(PID.TID 0000.0001) >   fileName(3) = 'physDiag',
(PID.TID 0000.0001) >  frequency(3) = 2592000.,
(PID.TID 0000.0001) ># ( = 1 month)
(PID.TID 0000.0001) >#-
(PID.TID 0000.0001) >  fields(1:8,4)  = 'AtPhCnvP','AtPhLscP','AtPhCAPE',
(PID.TID 0000.0001) >                   'AtPhCnIn','AtPhKlzb','AtPhConv',
(PID.TID 0000.0001) >                   'AtPhRlxT','AtPhRlxQ',
(PID.TID 0000.0001) >  fileName(4) = 'convDiag',
(PID.TID 0000.0001) ># timePhase(4) =  31103600.,
(PID.TID 0000.0001) >#  frequency(4) = -172800.,
(PID.TID 0000.0001) >  frequency(4) = 2592000.,
(PID.TID 0000.0001) ># ( = 1 month)
(PID.TID 0000.0001) >#-
(PID.TID 0000.0001) >  fields(1:4,5)  = 'AtPhNSR ','AtPhNLR ','AtPhDSR ','AtPhDLR ',
(PID.TID 0000.0001) >   fileName(5) = 'radDiag',
(PID.TID 0000.0001) ># timePhase(5) =  31103600.,
(PID.TID 0000.0001) >#  frequency(5) = -172800.,
(PID.TID 0000.0001) >  frequency(5) = 2592000.,
(PID.TID 0000.0001) ># ( = 1 month)
(PID.TID 0000.0001) >#-
(PID.TID 0000.0001) >#  fields(1:17,6) = 'UVEL    ','VVEL    ','AtPhdUdt','AtPhdVdt',
(PID.TID 0000.0001) >#                   'Um_Advec','Vm_Advec','Um_dPHdx','Vm_dPHdy',
(PID.TID 0000.0001) >#                   'Um_Ext  ','Vm_Ext  ','SHAP_dU ','SHAP_dV ',
(PID.TID 0000.0001) >#                   'Um_AdvRe','Vm_AdvZ3','Um_AdvZ3','Vm_AdvRe',
(PID.TID 0000.0001) >#                   'momKE   ',
(PID.TID 0000.0001) >#   fileName(6) = 'momDiag',
(PID.TID 0000.0001) >#  frequency(6) = 2592000.,
(PID.TID 0000.0001) >## ( = 1 month)
(PID.TID 0000.0001) >#  fields(1:14,7) = 'UVEL    ','VVEL    ','WVEL    ',
(PID.TID 0000.0001) >#                   'THETA   ','SALT    ','UE_VEL_C',
(PID.TID 0000.0001) >#                   'VN_VEL_C','UV_VEL_C','WU_VEL  ','WV_VEL  ',
(PID.TID 0000.0001) >#                   'UVELTH  ','VVELTH  ','WVELTH  ','AtPhdTdt',
(PID.TID 0000.0001) >#   fileName(7) = 'daily3dDiag',
(PID.TID 0000.0001) >#  frequency(7) = 86400.,
(PID.TID 0000.0001) >## ( = 1 day)
(PID.TID 0000.0001) >#  fields(1:4,8) = 'ETAN    ','AtPh_SST','AtPhCnvP','AtPhLscP',
(PID.TID 0000.0001) >#   fileName(8) = 'dailySurfDiag',
(PID.TID 0000.0001) >#  frequency(8) = 86400.,
(PID.TID 0000.0001) >## ( = 1 day)
(PID.TID 0000.0001) >#
(PID.TID 0000.0001) >
(PID.TID 0000.0001) > /
(PID.TID 0000.0001) >
(PID.TID 0000.0001) >#--------------------
(PID.TID 0000.0001) ># Parameter for Diagnostics of per level statistics:
(PID.TID 0000.0001) >#--------------------
(PID.TID 0000.0001) >#  diagSt_mnc (logical): write stat-diags to NetCDF files (default=diag_mnc)
(PID.TID 0000.0001) >#  diagSt_regMaskFile : file containing the region-mask to read-in
(PID.TID 0000.0001) >#  nSetRegMskFile   : number of region-mask sets within the region-mask file
(PID.TID 0000.0001) >#  set_regMask(i)   : region-mask set-index that identifies the region "i"
(PID.TID 0000.0001) >#  val_regMask(i)   : region "i" identifier value in the region mask
(PID.TID 0000.0001) >#--for each output-stream:
(PID.TID 0000.0001) >#  stat_fName(n) : prefix of the output file name (max 80c long) for outp.stream n
(PID.TID 0000.0001) >#  stat_freq(n):< 0 : write snap-shot output every |stat_freq| seconds
(PID.TID 0000.0001) >#               > 0 : write time-average output every stat_freq seconds
(PID.TID 0000.0001) >#  stat_phase(n)    : write at time = stat_phase + multiple of |stat_freq|
(PID.TID 0000.0001) >#  stat_region(:,n) : list of "regions" (default: 1 region only=global)
(PID.TID 0000.0001) >#  stat_fields(:,n) : list of selected diagnostics fields (8.c) in outp.stream n
(PID.TID 0000.0001) >#                (see "available_diagnostics.log" file for the full list of diags)
(PID.TID 0000.0001) >#--------------------
(PID.TID 0000.0001) > &DIAG_STATIS_PARMS
(PID.TID 0000.0001) > stat_fields(1:11,1) = 'ETAN    ','THETA   ','SALT    ','RELHUM  ',
(PID.TID 0000.0001) >                       'UE_VEL_C','VN_VEL_C','WVEL    ',
(PID.TID 0000.0001) >                       'AtPhdTdt','AtPhdQdt','AtPhdUdt','AtPhdVdt',
(PID.TID 0000.0001) >  stat_fName(1) = 'dynStDiag',
(PID.TID 0000.0001) >#  stat_freq(1) = 432000.,
(PID.TID 0000.0001) >#  stat_freq(1) = 43200.,
(PID.TID 0000.0001) >  stat_freq(1) = 21600.,
(PID.TID 0000.0001) >#  stat_freq(1) = 3600.,
(PID.TID 0000.0001) >#  stat_phase(1) = 0.,
(PID.TID 0000.0001) > stat_fields(1:11,2) = 'AtPhdtTg','AtPhdtQg','AtPhDifT','AtPhDifM',
(PID.TID 0000.0001) >                       'AtPhDisH','HeatDiss','MoistCor','SHAP_dKE',
(PID.TID 0000.0001) >                       'AtPhdTrd','AtPhdTlc','AtPhdTcv',
(PID.TID 0000.0001) >  stat_fName(2) = 'phyStDiag',
(PID.TID 0000.0001) >#  stat_freq(2) = 432000.,
(PID.TID 0000.0001) >#  stat_freq(2) = 43200.,
(PID.TID 0000.0001) >   stat_freq(2) = 21600.,
(PID.TID 0000.0001) >#  stat_freq(2) = 3600.,
(PID.TID 0000.0001) >#  stat_phase(2) = 0.,
(PID.TID 0000.0001) > stat_fields(1:17,3) = 'AtPhSens','AtPhEvap','AtPhTauX','AtPhTauY',
(PID.TID 0000.0001) >                       'AtPhCnvP','AtPhLscP','AtPhCAPE',
(PID.TID 0000.0001) >                       'AtPh_SST','AtPhNTSR','AtPhOLR ',
(PID.TID 0000.0001) >                       'AtPhNSSR','AtPhDSLR','AtPhUSLR',
(PID.TID 0000.0001) >                       'AtPhNSR ','AtPhNLR ','AtPhDSR ','AtPhDLR ',
(PID.TID 0000.0001) >  stat_fName(3) = 'flxStDiag',
(PID.TID 0000.0001) >#  stat_freq(3) = 432000.,
(PID.TID 0000.0001) >#  stat_freq(3) = 43200.,
(PID.TID 0000.0001) >   stat_freq(3) = 21600.,
(PID.TID 0000.0001) >#  stat_freq(3) = 3600.,
(PID.TID 0000.0001) >#  stat_phase(3) = 0.,
(PID.TID 0000.0001) > /
(PID.TID 0000.0001) >
(PID.TID 0000.0001) 
(PID.TID 0000.0001) S/R DIAGNOSTICS_READPARMS, read namelist "diagnostics_list": start
(PID.TID 0000.0001) S/R DIAGNOSTICS_READPARMS, read namelist "diagnostics_list": OK
(PID.TID 0000.0001) S/R DIAGNOSTICS_READPARMS, read namelist "DIAG_STATIS_PARMS": start
(PID.TID 0000.0001) S/R DIAGNOSTICS_READPARMS, read namelist "DIAG_STATIS_PARMS": OK
(PID.TID 0000.0001)  DIAGNOSTICS_READPARMS: global parameter summary:
(PID.TID 0000.0001)  dumpAtLast = /* always write time-ave diags at the end */
(PID.TID 0000.0001)                   F
(PID.TID 0000.0001)     ;
(PID.TID 0000.0001)  diag_mnc =   /* write NetCDF output files */
(PID.TID 0000.0001)                   F
(PID.TID 0000.0001)     ;
(PID.TID 0000.0001)  useMissingValue = /* put MissingValue where mask = 0 */
(PID.TID 0000.0001)                   F
(PID.TID 0000.0001)     ;
(PID.TID 0000.0001)  diagCG_maxIters = /* max number of iters in diag_cg2d */
(PID.TID 0000.0001)                     200
(PID.TID 0000.0001)     ;
(PID.TID 0000.0001)  diagCG_resTarget = /* residual target for diag_cg2d */
(PID.TID 0000.0001)                 1.000000000000000E-07
(PID.TID 0000.0001)     ;
(PID.TID 0000.0001)  diagCG_pcOffDFac = /* preconditioner off-diagonal factor */
(PID.TID 0000.0001)                 9.611687812379854E-01
(PID.TID 0000.0001)     ;
(PID.TID 0000.0001) -----------------------------------------------------
(PID.TID 0000.0001)  DIAGNOSTICS_READPARMS: active diagnostics summary:
(PID.TID 0000.0001) -----------------------------------------------------
(PID.TID 0000.0001) Creating Output Stream: surfDiag
(PID.TID 0000.0001) Output Frequency:    2592000.000000 ; Phase:           0.000000
(PID.TID 0000.0001)  Averaging Freq.:    2592000.000000 , Phase:           0.000000 , Cycle:   1
(PID.TID 0000.0001)  missing value: -9.990000000000E+02
(PID.TID 0000.0001)  Levels:    will be set later
(PID.TID 0000.0001)  Fields:    ETAN     ETANSQ   DETADT2  AtPhCnvP AtPhLscP AtPhCAPE AtPhSens AtPhEvap AtPhTauX AtPhTauY
(PID.TID 0000.0001)  Fields:    AtPh_SST AtPhNTSR AtPhOLR  AtPhNSSR AtPhDSLR AtPhUSLR
(PID.TID 0000.0001) Creating Output Stream: dynDiag
(PID.TID 0000.0001) Output Frequency:    2592000.000000 ; Phase:           0.000000
(PID.TID 0000.0001)  Averaging Freq.:    2592000.000000 , Phase:           0.000000 , Cycle:   1
(PID.TID 0000.0001)  missing value: -9.990000000000E+02
(PID.TID 0000.0001)  Levels:    will be set later
(PID.TID 0000.0001)  Fields:    UVEL     VVEL     WVEL     THETA    SALT     UVELSQ   VVELSQ   WVELSQ   THETASQ  SALTSQ
(PID.TID 0000.0001)  Fields:    UVELMASS VVELMASS UE_VEL_C VN_VEL_C UV_VEL_C WU_VEL   WV_VEL   UVELTH   VVELTH   WVELTH
(PID.TID 0000.0001)  Fields:    RELHUM
(PID.TID 0000.0001) Creating Output Stream: physDiag
(PID.TID 0000.0001) Output Frequency:    2592000.000000 ; Phase:           0.000000
(PID.TID 0000.0001)  Averaging Freq.:    2592000.000000 , Phase:           0.000000 , Cycle:   1
(PID.TID 0000.0001)  missing value: -9.990000000000E+02
(PID.TID 0000.0001)  Levels:    will be set later
(PID.TID 0000.0001)  Fields:    AtPhdTdt AtPhdQdt AtPhdUdt AtPhdVdt AtPhDisH HeatDiss MoistCor SHAP_dKE AtPhdTrd AtPhdTlc
(PID.TID 0000.0001)  Fields:    AtPhdTcv
(PID.TID 0000.0001) Creating Output Stream: convDiag
(PID.TID 0000.0001) Output Frequency:    2592000.000000 ; Phase:           0.000000
(PID.TID 0000.0001)  Averaging Freq.:    2592000.000000 , Phase:           0.000000 , Cycle:   1
(PID.TID 0000.0001)  missing value: -9.990000000000E+02
(PID.TID 0000.0001)  Levels:    will be set later
(PID.TID 0000.0001)  Fields:    AtPhCnvP AtPhLscP AtPhCAPE AtPhCnIn AtPhKlzb AtPhConv AtPhRlxT AtPhRlxQ
(PID.TID 0000.0001) Creating Output Stream: radDiag
(PID.TID 0000.0001) Output Frequency:    2592000.000000 ; Phase:           0.000000
(PID.TID 0000.0001)  Averaging Freq.:    2592000.000000 , Phase:           0.000000 , Cycle:   1
(PID.TID 0000.0001)  missing value: -9.990000000000E+02
(PID.TID 0000.0001)  Levels:    will be set later
(PID.TID 0000.0001)  Fields:    AtPhNSR  AtPhNLR  AtPhDSR  AtPhDLR
(PID.TID 0000.0001) -----------------------------------------------------
(PID.TID 0000.0001)  DIAGNOSTICS_READPARMS: statistics diags. summary:
(PID.TID 0000.0001) Creating Stats. Output Stream: dynStDiag
(PID.TID 0000.0001) Output Frequency:      21600.000000 ; Phase:           0.000000
(PID.TID 0000.0001)  Regions:   0
(PID.TID 0000.0001)  Fields:    ETAN     THETA    SALT     RELHUM   UE_VEL_C VN_VEL_C WVEL     AtPhdTdt AtPhdQdt AtPhdUdt
(PID.TID 0000.0001)  Fields:    AtPhdVdt
(PID.TID 0000.0001) Creating Stats. Output Stream: phyStDiag
(PID.TID 0000.0001) Output Frequency:      21600.000000 ; Phase:           0.000000
(PID.TID 0000.0001)  Regions:   0
(PID.TID 0000.0001)  Fields:    AtPhdtTg AtPhdtQg AtPhDifT AtPhDifM AtPhDisH HeatDiss MoistCor SHAP_dKE AtPhdTrd AtPhdTlc
(PID.TID 0000.0001)  Fields:    AtPhdTcv
(PID.TID 0000.0001) Creating Stats. Output Stream: flxStDiag
(PID.TID 0000.0001) Output Frequency:      21600.000000 ; Phase:           0.000000
(PID.TID 0000.0001)  Regions:   0
(PID.TID 0000.0001)  Fields:    AtPhSens AtPhEvap AtPhTauX AtPhTauY AtPhCnvP AtPhLscP AtPhCAPE AtPh_SST AtPhNTSR AtPhOLR
(PID.TID 0000.0001)  Fields:    AtPhNSSR AtPhDSLR AtPhUSLR AtPhNSR  AtPhNLR  AtPhDSR  AtPhDLR
(PID.TID 0000.0001) -----------------------------------------------------
(PID.TID 0000.0001) 
(PID.TID 0000.0001) SET_PARMS: done
(PID.TID 0000.0001) Enter INI_VERTICAL_GRID: setInterFDr=    T ; setCenterDr=    F
(PID.TID 0000.0001) tile:   1 ; Read from file dxC1_dXYa.face001.bin
(PID.TID 0000.0001)   => xC yC dxF dyF rA xG yG dxV dyU rAz dxC dyC rAw rAs dxG dyG AngleCS AngleSN
(PID.TID 0000.0001) tile:   2 ; Read from file dxC1_dXYa.face002.bin
(PID.TID 0000.0001)   => xC yC dxF dyF rA xG yG dxV dyU rAz dxC dyC rAw rAs dxG dyG AngleCS AngleSN
(PID.TID 0000.0001) tile:   3 ; Read from file dxC1_dXYa.face003.bin
(PID.TID 0000.0001)   => xC yC dxF dyF rA xG yG dxV dyU rAz dxC dyC rAw rAs dxG dyG AngleCS AngleSN
(PID.TID 0000.0001) tile:   4 ; Read from file dxC1_dXYa.face004.bin
(PID.TID 0000.0001)   => xC yC dxF dyF rA xG yG dxV dyU rAz dxC dyC rAw rAs dxG dyG AngleCS AngleSN
(PID.TID 0000.0001) tile:   5 ; Read from file dxC1_dXYa.face005.bin
(PID.TID 0000.0001)   => xC yC dxF dyF rA xG yG dxV dyU rAz dxC dyC rAw rAs dxG dyG AngleCS AngleSN
(PID.TID 0000.0001) tile:   6 ; Read from file dxC1_dXYa.face006.bin
(PID.TID 0000.0001)   => xC yC dxF dyF rA xG yG dxV dyU rAz dxC dyC rAw rAs dxG dyG AngleCS AngleSN
(PID.TID 0000.0001) %MON XC_max                       =   1.7854351589505E+02
(PID.TID 0000.0001) %MON XC_min                       =  -1.7854351589505E+02
(PID.TID 0000.0001) %MON XC_mean                      =  -4.6999441375798E-15
(PID.TID 0000.0001) %MON XC_sd                        =   1.0355545336287E+02
(PID.TID 0000.0001) %MON XG_max                       =   1.8000000000000E+02
(PID.TID 0000.0001) %MON XG_min                       =  -1.7708797161002E+02
(PID.TID 0000.0001) %MON XG_mean                      =   1.8603515625000E+00
(PID.TID 0000.0001) %MON XG_sd                        =   1.0357130300504E+02
(PID.TID 0000.0001) %MON DXC_max                      =   3.2375185836900E+05
(PID.TID 0000.0001) %MON DXC_min                      =   1.1353730006923E+05
(PID.TID 0000.0001) %MON DXC_mean                     =   2.8606102525036E+05
(PID.TID 0000.0001) %MON DXC_sd                       =   3.4020997630307E+04
(PID.TID 0000.0001) %MON DXF_max                      =   3.2369947500827E+05
(PID.TID 0000.0001) %MON DXF_min                      =   1.2020820513318E+05
(PID.TID 0000.0001) %MON DXF_mean                     =   2.8605437324820E+05
(PID.TID 0000.0001) %MON DXF_sd                       =   3.4050524252539E+04
(PID.TID 0000.0001) %MON DXG_max                      =   3.2375195872773E+05
(PID.TID 0000.0001) %MON DXG_min                      =   1.0098378008791E+05
(PID.TID 0000.0001) %MON DXG_mean                     =   2.8603818508931E+05
(PID.TID 0000.0001) %MON DXG_sd                       =   3.4140406908005E+04
(PID.TID 0000.0001) %MON DXV_max                      =   3.2380418162750E+05
(PID.TID 0000.0001) %MON DXV_min                      =   8.0152299824136E+04
(PID.TID 0000.0001) %MON DXV_mean                     =   2.8603970633619E+05
(PID.TID 0000.0001) %MON DXV_sd                       =   3.4145142117723E+04
(PID.TID 0000.0001) %MON YC_max                       =   8.7940663871962E+01
(PID.TID 0000.0001) %MON YC_min                       =  -8.7940663871962E+01
(PID.TID 0000.0001) %MON YC_mean                      =   0.0000000000000E+00
(PID.TID 0000.0001) %MON YC_sd                        =   3.8676242969072E+01
(PID.TID 0000.0001) %MON YG_max                       =   9.0000000000000E+01
(PID.TID 0000.0001) %MON YG_min                       =  -9.0000000000000E+01
(PID.TID 0000.0001) %MON YG_mean                      =  -1.1842378929335E-15
(PID.TID 0000.0001) %MON YG_sd                        =   3.8676895860710E+01
(PID.TID 0000.0001) %MON DYC_max                      =   3.2375185836900E+05
(PID.TID 0000.0001) %MON DYC_min                      =   1.1353730006923E+05
(PID.TID 0000.0001) %MON DYC_mean                     =   2.8606102525036E+05
(PID.TID 0000.0001) %MON DYC_sd                       =   3.4020997630307E+04
(PID.TID 0000.0001) %MON DYF_max                      =   3.2369947500827E+05
(PID.TID 0000.0001) %MON DYF_min                      =   1.2020820513318E+05
(PID.TID 0000.0001) %MON DYF_mean                     =   2.8605437324820E+05
(PID.TID 0000.0001) %MON DYF_sd                       =   3.4050524252539E+04
(PID.TID 0000.0001) %MON DYG_max                      =   3.2375195872773E+05
(PID.TID 0000.0001) %MON DYG_min                      =   1.0098378008791E+05
(PID.TID 0000.0001) %MON DYG_mean                     =   2.8603818508931E+05
(PID.TID 0000.0001) %MON DYG_sd                       =   3.4140406908005E+04
(PID.TID 0000.0001) %MON DYU_max                      =   3.2380418162750E+05
(PID.TID 0000.0001) %MON DYU_min                      =   8.0152299824136E+04
(PID.TID 0000.0001) %MON DYU_mean                     =   2.8603970633619E+05
(PID.TID 0000.0001) %MON DYU_sd                       =   3.4145142117723E+04
(PID.TID 0000.0001) %MON RA_max                       =   1.0474757731659E+11
(PID.TID 0000.0001) %MON RA_min                       =   1.5497867056722E+10
(PID.TID 0000.0001) %MON RA_mean                      =   8.2985711332657E+10
(PID.TID 0000.0001) %MON RA_sd                        =   1.7448591913787E+10
(PID.TID 0000.0001) %MON RAW_max                      =   1.0481529828871E+11
(PID.TID 0000.0001) %MON RAW_min                      =   1.1465425741966E+10
(PID.TID 0000.0001) %MON RAW_mean                     =   8.2985711332657E+10
(PID.TID 0000.0001) %MON RAW_sd                       =   1.7503889570793E+10
(PID.TID 0000.0001) %MON RAS_max                      =   1.0481529828871E+11
(PID.TID 0000.0001) %MON RAS_min                      =   1.1465425741966E+10
(PID.TID 0000.0001) %MON RAS_mean                     =   8.2985711332657E+10
(PID.TID 0000.0001) %MON RAS_sd                       =   1.7503889570793E+10
(PID.TID 0000.0001) %MON RAZ_max                      =   1.0484349334619E+11
(PID.TID 0000.0001) %MON RAZ_min                      =   8.8317900612505E+09
(PID.TID 0000.0001) %MON RAZ_mean                     =   8.2992246709235E+10
(PID.TID 0000.0001) %MON RAZ_sd                       =   1.7482297311044E+10
(PID.TID 0000.0001) %MON AngleCS_max                  =   9.9999994756719E-01
(PID.TID 0000.0001) %MON AngleCS_min                  =  -9.9968286884824E-01
(PID.TID 0000.0001) %MON AngleCS_mean                 =   3.3078922539000E-01
(PID.TID 0000.0001) %MON AngleCS_sd                   =   6.2496278958502E-01
(PID.TID 0000.0001) %MON AngleSN_max                  =   9.9968286884824E-01
(PID.TID 0000.0001) %MON AngleSN_min                  =  -9.9999994756719E-01
(PID.TID 0000.0001) %MON AngleSN_mean                 =  -3.3078922539000E-01
(PID.TID 0000.0001) %MON AngleSN_sd                   =   6.2496278958502E-01
(PID.TID 0000.0001) 
(PID.TID 0000.0001) SET_REF_STATE: PhiRef/g [m] at level Center (integer)
(PID.TID 0000.0001)                      and at level Interface (half-int.) :
(PID.TID 0000.0001)  K=  0.5  ;  r=       100000.0  ;  phiRef/g=        0.000
(PID.TID 0000.0001)  K=  1.0  ;  r=        99000.0  ;  phiRef/g=       84.569
(PID.TID 0000.0001)  K=  1.5  ;  r=        98000.0  ;  phiRef/g=      191.633
(PID.TID 0000.0001)  K=  2.0  ;  r=        96500.0  ;  phiRef/g=      298.696
(PID.TID 0000.0001)  K=  2.5  ;  r=        95000.0  ;  phiRef/g=      429.820
(PID.TID 0000.0001)  K=  3.0  ;  r=        93500.0  ;  phiRef/g=      560.943
(PID.TID 0000.0001)  K=  3.5  ;  r=        92000.0  ;  phiRef/g=      695.108
(PID.TID 0000.0001)  K=  4.0  ;  r=        90500.0  ;  phiRef/g=      829.272
(PID.TID 0000.0001)  K=  4.5  ;  r=        89000.0  ;  phiRef/g=      989.874
(PID.TID 0000.0001)  K=  5.0  ;  r=        87000.0  ;  phiRef/g=     1150.476
(PID.TID 0000.0001)  K=  5.5  ;  r=        85000.0  ;  phiRef/g=     1363.894
(PID.TID 0000.0001)  K=  6.0  ;  r=        82500.0  ;  phiRef/g=     1577.311
(PID.TID 0000.0001)  K=  6.5  ;  r=        80000.0  ;  phiRef/g=     1824.429
(PID.TID 0000.0001)  K=  7.0  ;  r=        77500.0  ;  phiRef/g=     2071.547
(PID.TID 0000.0001)  K=  7.5  ;  r=        75000.0  ;  phiRef/g=     2330.330
(PID.TID 0000.0001)  K=  8.0  ;  r=        72500.0  ;  phiRef/g=     2589.114
(PID.TID 0000.0001)  K=  8.5  ;  r=        70000.0  ;  phiRef/g=     2860.979
(PID.TID 0000.0001)  K=  9.0  ;  r=        67500.0  ;  phiRef/g=     3132.844
(PID.TID 0000.0001)  K=  9.5  ;  r=        65000.0  ;  phiRef/g=     3419.500
(PID.TID 0000.0001)  K= 10.0  ;  r=        62500.0  ;  phiRef/g=     3706.156
(PID.TID 0000.0001)  K= 10.5  ;  r=        60000.0  ;  phiRef/g=     4009.694
(PID.TID 0000.0001)  K= 11.0  ;  r=        57500.0  ;  phiRef/g=     4313.233
(PID.TID 0000.0001)  K= 11.5  ;  r=        55000.0  ;  phiRef/g=     4636.257
(PID.TID 0000.0001)  K= 12.0  ;  r=        52500.0  ;  phiRef/g=     4959.281
(PID.TID 0000.0001)  K= 12.5  ;  r=        50000.0  ;  phiRef/g=     5305.092
(PID.TID 0000.0001)  K= 13.0  ;  r=        47500.0  ;  phiRef/g=     5650.904
(PID.TID 0000.0001)  K= 13.5  ;  r=        45000.0  ;  phiRef/g=     6023.789
(PID.TID 0000.0001)  K= 14.0  ;  r=        42500.0  ;  phiRef/g=     6396.675
(PID.TID 0000.0001)  K= 14.5  ;  r=        40000.0  ;  phiRef/g=     6802.357
(PID.TID 0000.0001)  K= 15.0  ;  r=        37500.0  ;  phiRef/g=     7208.039
(PID.TID 0000.0001)  K= 15.5  ;  r=        35000.0  ;  phiRef/g=     7654.429
(PID.TID 0000.0001)  K= 16.0  ;  r=        32500.0  ;  phiRef/g=     8100.820
(PID.TID 0000.0001)  K= 16.5  ;  r=        30000.0  ;  phiRef/g=     8599.358
(PID.TID 0000.0001)  K= 17.0  ;  r=        27500.0  ;  phiRef/g=     9097.896
(PID.TID 0000.0001)  K= 17.5  ;  r=        25000.0  ;  phiRef/g=     9605.472
(PID.TID 0000.0001)  K= 18.0  ;  r=        23000.0  ;  phiRef/g=    10113.047
(PID.TID 0000.0001)  K= 18.5  ;  r=        21000.0  ;  phiRef/g=    10627.828
(PID.TID 0000.0001)  K= 19.0  ;  r=        19000.0  ;  phiRef/g=    11142.609
(PID.TID 0000.0001)  K= 19.5  ;  r=        17000.0  ;  phiRef/g=    11701.248
(PID.TID 0000.0001)  K= 20.0  ;  r=        15250.0  ;  phiRef/g=    12259.888
(PID.TID 0000.0001)  K= 20.5  ;  r=        13500.0  ;  phiRef/g=    12830.195
(PID.TID 0000.0001)  K= 21.0  ;  r=        12000.0  ;  phiRef/g=    13400.502
(PID.TID 0000.0001)  K= 21.5  ;  r=        10500.0  ;  phiRef/g=    13977.179
(PID.TID 0000.0001)  K= 22.0  ;  r=         9250.0  ;  phiRef/g=    14553.856
(PID.TID 0000.0001)  K= 22.5  ;  r=         8000.0  ;  phiRef/g=    15125.623
(PID.TID 0000.0001)  K= 23.0  ;  r=         7000.0  ;  phiRef/g=    15697.389
(PID.TID 0000.0001)  K= 23.5  ;  r=         6000.0  ;  phiRef/g=    16241.692
(PID.TID 0000.0001)  K= 24.0  ;  r=         5250.0  ;  phiRef/g=    16785.996
(PID.TID 0000.0001)  K= 24.5  ;  r=         4500.0  ;  phiRef/g=    17303.328
(PID.TID 0000.0001)  K= 25.0  ;  r=         3900.0  ;  phiRef/g=    17820.661
(PID.TID 0000.0001)  K= 25.5  ;  r=         3300.0  ;  phiRef/g=    18294.361
(PID.TID 0000.0001)  K= 26.0  ;  r=         2900.0  ;  phiRef/g=    18768.061
(PID.TID 0000.0001)  K= 26.5  ;  r=         2500.0  ;  phiRef/g=    19191.215
(PID.TID 0000.0001)  K= 27.0  ;  r=         2175.0  ;  phiRef/g=    19614.368
(PID.TID 0000.0001)  K= 27.5  ;  r=         1850.0  ;  phiRef/g=    20029.207
(PID.TID 0000.0001)  K= 28.0  ;  r=         1600.0  ;  phiRef/g=    20444.046
(PID.TID 0000.0001)  K= 28.5  ;  r=         1350.0  ;  phiRef/g=    20826.069
(PID.TID 0000.0001)  K= 29.0  ;  r=         1175.0  ;  phiRef/g=    21208.093
(PID.TID 0000.0001)  K= 29.5  ;  r=         1000.0  ;  phiRef/g=    21542.730
(PID.TID 0000.0001)  K= 30.0  ;  r=          875.0  ;  phiRef/g=    21877.367
(PID.TID 0000.0001)  K= 30.5  ;  r=          750.0  ;  phiRef/g=    22187.423
(PID.TID 0000.0001)  K= 31.0  ;  r=          650.0  ;  phiRef/g=    22497.480
(PID.TID 0000.0001)  K= 31.5  ;  r=          550.0  ;  phiRef/g=    22797.317
(PID.TID 0000.0001)  K= 32.0  ;  r=          475.0  ;  phiRef/g=    23097.154
(PID.TID 0000.0001)  K= 32.5  ;  r=          400.0  ;  phiRef/g=    23394.664
(PID.TID 0000.0001)  K= 33.0  ;  r=          337.5  ;  phiRef/g=    23692.174
(PID.TID 0000.0001)  K= 33.5  ;  r=          275.0  ;  phiRef/g=    24009.466
(PID.TID 0000.0001)  K= 34.0  ;  r=          225.0  ;  phiRef/g=    24326.758
(PID.TID 0000.0001)  K= 34.5  ;  r=          175.0  ;  phiRef/g=    24665.834
(PID.TID 0000.0001)  K= 35.0  ;  r=          137.5  ;  phiRef/g=    25004.909
(PID.TID 0000.0001)  K= 35.5  ;  r=          100.0  ;  phiRef/g=    25361.775
(PID.TID 0000.0001)  K= 36.0  ;  r=           75.0  ;  phiRef/g=    25718.641
(PID.TID 0000.0001)  K= 36.5  ;  r=           50.0  ;  phiRef/g=    26057.733
(PID.TID 0000.0001)  K= 37.0  ;  r=           37.5  ;  phiRef/g=    26396.825
(PID.TID 0000.0001)  K= 37.5  ;  r=           25.0  ;  phiRef/g=    26699.785
(PID.TID 0000.0001)  K= 38.0  ;  r=           17.5  ;  phiRef/g=    27002.745
(PID.TID 0000.0001)  K= 38.5  ;  r=           10.0  ;  phiRef/g=    27289.581
(PID.TID 0000.0001)  K= 39.0  ;  r=            7.0  ;  phiRef/g=    27576.416
(PID.TID 0000.0001)  K= 39.5  ;  r=            4.0  ;  phiRef/g=    27820.688
(PID.TID 0000.0001)  K= 40.0  ;  r=            2.5  ;  phiRef/g=    28064.960
(PID.TID 0000.0001)  K= 40.5  ;  r=            1.0  ;  phiRef/g=    28393.967
(PID.TID 0000.0001) // =======================================================
(PID.TID 0000.0001) // Field Model R_low (ini_masks_etc)
(PID.TID 0000.0001) // CMIN =          1.000000000000000E+00
(PID.TID 0000.0001) // CMAX =          1.000000000000000E+00
(PID.TID 0000.0001) // CINT =          0.000000000000000E+00
(PID.TID 0000.0001) // SYMBOLS (CMIN->CMAX): -abcdefghijklmnopqrstuvwxyz+
(PID.TID 0000.0001) //                  0.0: .
(PID.TID 0000.0001) // RANGE I (Lo:Hi:Step):(    -3:   196:     1)
(PID.TID 0000.0001) // RANGE J (Lo:Hi:Step):(    36:    -3:    -1)
(PID.TID 0000.0001) // RANGE K (Lo:Hi:Step):(   1:   1:   1)
(PID.TID 0000.0001) // =======================================================
(PID.TID 0000.0001) // =======================================================
(PID.TID 0000.0001) // END OF FIELD                                          =
(PID.TID 0000.0001) // =======================================================
(PID.TID 0000.0001) 
(PID.TID 0000.0001) // =======================================================
(PID.TID 0000.0001) // Field Model Ro_surf (ini_masks_etc)
(PID.TID 0000.0001) // CMIN =          1.000000000000000E+05
(PID.TID 0000.0001) // CMAX =          1.000000000000000E+05
(PID.TID 0000.0001) // CINT =          0.000000000000000E+00
(PID.TID 0000.0001) // SYMBOLS (CMIN->CMAX): -abcdefghijklmnopqrstuvwxyz+
(PID.TID 0000.0001) //                  0.0: .
(PID.TID 0000.0001) // RANGE I (Lo:Hi:Step):(    -3:   196:     1)
(PID.TID 0000.0001) // RANGE J (Lo:Hi:Step):(    36:    -3:    -1)
(PID.TID 0000.0001) // RANGE K (Lo:Hi:Step):(   1:   1:   1)
(PID.TID 0000.0001) // =======================================================
(PID.TID 0000.0001) // =======================================================
(PID.TID 0000.0001) // END OF FIELD                                          =
(PID.TID 0000.0001) // =======================================================
(PID.TID 0000.0001) 
(PID.TID 0000.0001) // =======================================================
(PID.TID 0000.0001) // Field hFacC at iteration          0
(PID.TID 0000.0001) // CMIN =          1.000000000000000E+00
(PID.TID 0000.0001) // CMAX =          1.000000000000000E+00
(PID.TID 0000.0001) // CINT =          0.000000000000000E+00
(PID.TID 0000.0001) // SYMBOLS (CMIN->CMAX): -abcdefghijklmnopqrstuvwxyz+
(PID.TID 0000.0001) //                  0.0: .
(PID.TID 0000.0001) // RANGE I (Lo:Hi:Step):(    -3:   196:     1)
(PID.TID 0000.0001) // RANGE J (Lo:Hi:Step):(    36:    -3:    -1)
(PID.TID 0000.0001) // RANGE K (Lo:Hi:Step):(   1:   1:   1)
(PID.TID 0000.0001) // =======================================================
(PID.TID 0000.0001) // =======================================================
(PID.TID 0000.0001) // END OF FIELD                                          =
(PID.TID 0000.0001) // =======================================================
(PID.TID 0000.0001) 
(PID.TID 0000.0001) // =======================================================
(PID.TID 0000.0001) // Field hFacW at iteration          0
(PID.TID 0000.0001) // CMIN =          1.000000000000000E+00
(PID.TID 0000.0001) // CMAX =          1.000000000000000E+00
(PID.TID 0000.0001) // CINT =          0.000000000000000E+00
(PID.TID 0000.0001) // SYMBOLS (CMIN->CMAX): -abcdefghijklmnopqrstuvwxyz+
(PID.TID 0000.0001) //                  0.0: .
(PID.TID 0000.0001) // RANGE I (Lo:Hi:Step):(    -3:   196:     1)
(PID.TID 0000.0001) // RANGE J (Lo:Hi:Step):(    36:    -3:    -1)
(PID.TID 0000.0001) // RANGE K (Lo:Hi:Step):(   1:   1:   1)
(PID.TID 0000.0001) // =======================================================
(PID.TID 0000.0001) // =======================================================
(PID.TID 0000.0001) // END OF FIELD                                          =
(PID.TID 0000.0001) // =======================================================
(PID.TID 0000.0001) 
(PID.TID 0000.0001) // =======================================================
(PID.TID 0000.0001) // Field hFacS at iteration          0
(PID.TID 0000.0001) // CMIN =          1.000000000000000E+00
(PID.TID 0000.0001) // CMAX =          1.000000000000000E+00
(PID.TID 0000.0001) // CINT =          0.000000000000000E+00
(PID.TID 0000.0001) // SYMBOLS (CMIN->CMAX): -abcdefghijklmnopqrstuvwxyz+
(PID.TID 0000.0001) //                  0.0: .
(PID.TID 0000.0001) // RANGE I (Lo:Hi:Step):(    -3:   196:     1)
(PID.TID 0000.0001) // RANGE J (Lo:Hi:Step):(    36:    -3:    -1)
(PID.TID 0000.0001) // RANGE K (Lo:Hi:Step):(   1:   1:   1)
(PID.TID 0000.0001) // =======================================================
(PID.TID 0000.0001) // =======================================================
(PID.TID 0000.0001) // END OF FIELD                                          =
(PID.TID 0000.0001) // =======================================================
(PID.TID 0000.0001) 
(PID.TID 0000.0001) GAD_INIT_FIXED: GAD_OlMinSize=  2  0  2
(PID.TID 0000.0001) 
(PID.TID 0000.0001) // ===================================
(PID.TID 0000.0001) // GAD parameters :
(PID.TID 0000.0001) // ===================================
(PID.TID 0000.0001) tempAdvScheme =   /* Temp. Horiz.Advection scheme selector */
(PID.TID 0000.0001)                       2
(PID.TID 0000.0001)     ;
(PID.TID 0000.0001) tempVertAdvScheme =   /* Temp. Vert. Advection scheme selector */
(PID.TID 0000.0001)                       2
(PID.TID 0000.0001)     ;
(PID.TID 0000.0001) tempMultiDimAdvec =   /* use Muti-Dim Advec method for Temp */
(PID.TID 0000.0001)                   F
(PID.TID 0000.0001)     ;
(PID.TID 0000.0001) tempSOM_Advection = /* use 2nd Order Moment Advection for Temp */
(PID.TID 0000.0001)                   F
(PID.TID 0000.0001)     ;
(PID.TID 0000.0001) AdamsBashforthGt = /* apply Adams-Bashforth extrapolation on Gt */
(PID.TID 0000.0001)                   T
(PID.TID 0000.0001)     ;
(PID.TID 0000.0001) AdamsBashforth_T = /* apply Adams-Bashforth extrapolation on Temp */
(PID.TID 0000.0001)                   F
(PID.TID 0000.0001)     ;
(PID.TID 0000.0001) saltAdvScheme =   /* Salt. Horiz.advection scheme selector */
(PID.TID 0000.0001)                      77
(PID.TID 0000.0001)     ;
(PID.TID 0000.0001) saltVertAdvScheme =   /* Salt. Vert. Advection scheme selector */
(PID.TID 0000.0001)                      77
(PID.TID 0000.0001)     ;
(PID.TID 0000.0001) saltMultiDimAdvec =   /* use Muti-Dim Advec method for Salt */
(PID.TID 0000.0001)                   T
(PID.TID 0000.0001)     ;
(PID.TID 0000.0001) saltSOM_Advection = /* use 2nd Order Moment Advection for Salt */
(PID.TID 0000.0001)                   F
(PID.TID 0000.0001)     ;
(PID.TID 0000.0001) AdamsBashforthGs = /* apply Adams-Bashforth extrapolation on Gs */
(PID.TID 0000.0001)                   F
(PID.TID 0000.0001)     ;
(PID.TID 0000.0001) AdamsBashforth_S = /* apply Adams-Bashforth extrapolation on Salt */
(PID.TID 0000.0001)                   F
(PID.TID 0000.0001)     ;
(PID.TID 0000.0001) // ===================================
(PID.TID 0000.0001) ATM_PHYS_INIT_FIXED: opening data.atm_gray
(PID.TID 0000.0001)  OPEN_COPY_DATA_FILE: opening file data.atm_gray
(PID.TID 0000.0001) // =======================================================
(PID.TID 0000.0001) // Parameter file "data.atm_gray"
(PID.TID 0000.0001) // =======================================================
(PID.TID 0000.0001) >
(PID.TID 0000.0001) > &atmosphere_nml
(PID.TID 0000.0001) >    turb = .TRUE.,
(PID.TID 0000.0001) >    ldry_convection = .false.,
(PID.TID 0000.0001) >    lwet_convection = .TRUE.,
(PID.TID 0000.0001) >    do_virtual = .false.,
(PID.TID 0000.0001) >    two_stream = .true.,
(PID.TID 0000.0001) >    mixed_layer_bc = .false.,
(PID.TID 0000.0001) >    roughness_heat = 0.05,
(PID.TID 0000.0001) >    roughness_moist = 0.05,
(PID.TID 0000.0001) >    roughness_mom = 0.05,
(PID.TID 0000.0001) > /
(PID.TID 0000.0001) >
(PID.TID 0000.0001) > &radiation_nml
(PID.TID 0000.0001) ># solar_constant= 1365.,
(PID.TID 0000.0001) ># del_sol=1.,
(PID.TID 0000.0001) ># ir_tau_eq=
(PID.TID 0000.0001) ># ir_tau_pole=
(PID.TID 0000.0001) ># atm_abs = 0.,
(PID.TID 0000.0001) ># sw_diff=
(PID.TID 0000.0001) ># linear_tau=
(PID.TID 0000.0001) ># del_sw=
(PID.TID 0000.0001) ># albedo_value=0.38,
(PID.TID 0000.0001) ># window=
(PID.TID 0000.0001) >  select_incSW = 1,
(PID.TID 0000.0001) >  albedo_value=0.4,
(PID.TID 0000.0001) >  solar_exponent=0.,
(PID.TID 0000.0001) >  wv_exponent = -1.,
(PID.TID 0000.0001) >  ozone_in_SW = 1,
(PID.TID 0000.0001) >  two_stream_SW = 1,
(PID.TID 0000.0001) > /
(PID.TID 0000.0001) >
(PID.TID 0000.0001) > &lscale_cond_nml
(PID.TID 0000.0001) ># hc =
(PID.TID 0000.0001) ># do_evap=
(PID.TID 0000.0001) > /
(PID.TID 0000.0001) >
(PID.TID 0000.0001) > &dargan_bettsmiller_nml
(PID.TID 0000.0001) >#-- default:
(PID.TID 0000.0001) >#   tau_bm = 7200.,
(PID.TID 0000.0001) >#   rhbm   = 0.8,
(PID.TID 0000.0001) >#   do_virtual   = .FALSE.,
(PID.TID 0000.0001) >#   do_shallower = .FALSE.,
(PID.TID 0000.0001) >#   do_changeqref= .FALSE.,
(PID.TID 0000.0001) >#   do_envsat    = .FALSE.,
(PID.TID 0000.0001) >#   do_taucape   = .FALSE.,
(PID.TID 0000.0001) >#     capetaubm  = 900.,
(PID.TID 0000.0001) >#     tau_min    = 2400.,
(PID.TID 0000.0001) >#   do_bm_shift  = .FALSE.,
(PID.TID 0000.0001) >#-- POG choice:
(PID.TID 0000.0001) >#  rhbm = 0.7,
(PID.TID 0000.0001) >   do_virtual= .TRUE.,
(PID.TID 0000.0001) >   do_shallower= .TRUE.,
(PID.TID 0000.0001) > /
(PID.TID 0000.0001) >
(PID.TID 0000.0001) > &surface_flux_nml
(PID.TID 0000.0001) > /
(PID.TID 0000.0001) >
(PID.TID 0000.0001) > &vert_turb_driver_nml
(PID.TID 0000.0001) >#  do_shallow_conv, do_mellor_yamada,
(PID.TID 0000.0001) >#  gust_scheme, constant_gust, use_tau,
(PID.TID 0000.0001) >#  do_molecular_diffusion
(PID.TID 0000.0001) >  do_mellor_yamada=.FALSE.,
(PID.TID 0000.0001) > /
(PID.TID 0000.0001) >
(PID.TID 0000.0001) > &diffusivity_nml
(PID.TID 0000.0001) >#  fixed_depth, depth_0, frac_inner,
(PID.TID 0000.0001) >#  rich_crit_pbl, entr_ratio, parcel_buoy,
(PID.TID 0000.0001) >#  znom, free_atm_diff, free_atm_skyhi_diff,
(PID.TID 0000.0001) >#  pbl_mcm, rich_crit_diff, mix_len, rich_prandtl,
(PID.TID 0000.0001) >#  background_m, background_t, ampns, ampns_max,
(PID.TID 0000.0001) >#  do_virtual_non_mcm
(PID.TID 0000.0001) > /
(PID.TID 0000.0001) >
(PID.TID 0000.0001) > &monin_obukhov_nml
(PID.TID 0000.0001) > /
(PID.TID 0000.0001) >
(PID.TID 0000.0001) > &my25_turb_nml
(PID.TID 0000.0001) > /
(PID.TID 0000.0001) >
(PID.TID 0000.0001) > &shallow_conv_nml
(PID.TID 0000.0001) > /
(PID.TID 0000.0001) >
(PID.TID 0000.0001) > &mixed_layer_nml
(PID.TID 0000.0001) ># evaporation, qflux_amp, depth, qflux_width
(PID.TID 0000.0001) >  depth=50.,
(PID.TID 0000.0001) > /
(PID.TID 0000.0001) >
(PID.TID 0000.0001) 
(PID.TID 0000.0001) ATM_PHYS_INIT_FIXED: finished reading data.atm_gray
(PID.TID 0000.0001) MIXED_LAYER_INIT: opening data.atm_gray
(PID.TID 0000.0001)  OPEN_COPY_DATA_FILE: opening file data.atm_gray
(PID.TID 0000.0001) // =======================================================
(PID.TID 0000.0001) // Parameter file "data.atm_gray"
(PID.TID 0000.0001) // =======================================================
(PID.TID 0000.0001) >
(PID.TID 0000.0001) > &atmosphere_nml
(PID.TID 0000.0001) >    turb = .TRUE.,
(PID.TID 0000.0001) >    ldry_convection = .false.,
(PID.TID 0000.0001) >    lwet_convection = .TRUE.,
(PID.TID 0000.0001) >    do_virtual = .false.,
(PID.TID 0000.0001) >    two_stream = .true.,
(PID.TID 0000.0001) >    mixed_layer_bc = .false.,
(PID.TID 0000.0001) >    roughness_heat = 0.05,
(PID.TID 0000.0001) >    roughness_moist = 0.05,
(PID.TID 0000.0001) >    roughness_mom = 0.05,
(PID.TID 0000.0001) > /
(PID.TID 0000.0001) >
(PID.TID 0000.0001) > &radiation_nml
(PID.TID 0000.0001) ># solar_constant= 1365.,
(PID.TID 0000.0001) ># del_sol=1.,
(PID.TID 0000.0001) ># ir_tau_eq=
(PID.TID 0000.0001) ># ir_tau_pole=
(PID.TID 0000.0001) ># atm_abs = 0.,
(PID.TID 0000.0001) ># sw_diff=
(PID.TID 0000.0001) ># linear_tau=
(PID.TID 0000.0001) ># del_sw=
(PID.TID 0000.0001) ># albedo_value=0.38,
(PID.TID 0000.0001) ># window=
(PID.TID 0000.0001) >  select_incSW = 1,
(PID.TID 0000.0001) >  albedo_value=0.4,
(PID.TID 0000.0001) >  solar_exponent=0.,
(PID.TID 0000.0001) >  wv_exponent = -1.,
(PID.TID 0000.0001) >  ozone_in_SW = 1,
(PID.TID 0000.0001) >  two_stream_SW = 1,
(PID.TID 0000.0001) > /
(PID.TID 0000.0001) >
(PID.TID 0000.0001) > &lscale_cond_nml
(PID.TID 0000.0001) ># hc =
(PID.TID 0000.0001) ># do_evap=
(PID.TID 0000.0001) > /
(PID.TID 0000.0001) >
(PID.TID 0000.0001) > &dargan_bettsmiller_nml
(PID.TID 0000.0001) >#-- default:
(PID.TID 0000.0001) >#   tau_bm = 7200.,
(PID.TID 0000.0001) >#   rhbm   = 0.8,
(PID.TID 0000.0001) >#   do_virtual   = .FALSE.,
(PID.TID 0000.0001) >#   do_shallower = .FALSE.,
(PID.TID 0000.0001) >#   do_changeqref= .FALSE.,
(PID.TID 0000.0001) >#   do_envsat    = .FALSE.,
(PID.TID 0000.0001) >#   do_taucape   = .FALSE.,
(PID.TID 0000.0001) >#     capetaubm  = 900.,
(PID.TID 0000.0001) >#     tau_min    = 2400.,
(PID.TID 0000.0001) >#   do_bm_shift  = .FALSE.,
(PID.TID 0000.0001) >#-- POG choice:
(PID.TID 0000.0001) >#  rhbm = 0.7,
(PID.TID 0000.0001) >   do_virtual= .TRUE.,
(PID.TID 0000.0001) >   do_shallower= .TRUE.,
(PID.TID 0000.0001) > /
(PID.TID 0000.0001) >
(PID.TID 0000.0001) > &surface_flux_nml
(PID.TID 0000.0001) > /
(PID.TID 0000.0001) >
(PID.TID 0000.0001) > &vert_turb_driver_nml
(PID.TID 0000.0001) >#  do_shallow_conv, do_mellor_yamada,
(PID.TID 0000.0001) >#  gust_scheme, constant_gust, use_tau,
(PID.TID 0000.0001) >#  do_molecular_diffusion
(PID.TID 0000.0001) >  do_mellor_yamada=.FALSE.,
(PID.TID 0000.0001) > /
(PID.TID 0000.0001) >
(PID.TID 0000.0001) > &diffusivity_nml
(PID.TID 0000.0001) >#  fixed_depth, depth_0, frac_inner,
(PID.TID 0000.0001) >#  rich_crit_pbl, entr_ratio, parcel_buoy,
(PID.TID 0000.0001) >#  znom, free_atm_diff, free_atm_skyhi_diff,
(PID.TID 0000.0001) >#  pbl_mcm, rich_crit_diff, mix_len, rich_prandtl,
(PID.TID 0000.0001) >#  background_m, background_t, ampns, ampns_max,
(PID.TID 0000.0001) >#  do_virtual_non_mcm
(PID.TID 0000.0001) > /
(PID.TID 0000.0001) >
(PID.TID 0000.0001) > &monin_obukhov_nml
(PID.TID 0000.0001) > /
(PID.TID 0000.0001) >
(PID.TID 0000.0001) > &my25_turb_nml
(PID.TID 0000.0001) > /
(PID.TID 0000.0001) >
(PID.TID 0000.0001) > &shallow_conv_nml
(PID.TID 0000.0001) > /
(PID.TID 0000.0001) >
(PID.TID 0000.0001) > &mixed_layer_nml
(PID.TID 0000.0001) ># evaporation, qflux_amp, depth, qflux_width
(PID.TID 0000.0001) >  depth=50.,
(PID.TID 0000.0001) > /
(PID.TID 0000.0001) >
(PID.TID 0000.0001) 
(PID.TID 0000.0001) MIXED_LAYER_INIT: finished reading data.atm_gray
(PID.TID 0000.0001) LSCALE_COND_INIT: opening data.atm_gray
(PID.TID 0000.0001)  OPEN_COPY_DATA_FILE: opening file data.atm_gray
(PID.TID 0000.0001) // =======================================================
(PID.TID 0000.0001) // Parameter file "data.atm_gray"
(PID.TID 0000.0001) // =======================================================
(PID.TID 0000.0001) >
(PID.TID 0000.0001) > &atmosphere_nml
(PID.TID 0000.0001) >    turb = .TRUE.,
(PID.TID 0000.0001) >    ldry_convection = .false.,
(PID.TID 0000.0001) >    lwet_convection = .TRUE.,
(PID.TID 0000.0001) >    do_virtual = .false.,
(PID.TID 0000.0001) >    two_stream = .true.,
(PID.TID 0000.0001) >    mixed_layer_bc = .false.,
(PID.TID 0000.0001) >    roughness_heat = 0.05,
(PID.TID 0000.0001) >    roughness_moist = 0.05,
(PID.TID 0000.0001) >    roughness_mom = 0.05,
(PID.TID 0000.0001) > /
(PID.TID 0000.0001) >
(PID.TID 0000.0001) > &radiation_nml
(PID.TID 0000.0001) ># solar_constant= 1365.,
(PID.TID 0000.0001) ># del_sol=1.,
(PID.TID 0000.0001) ># ir_tau_eq=
(PID.TID 0000.0001) ># ir_tau_pole=
(PID.TID 0000.0001) ># atm_abs = 0.,
(PID.TID 0000.0001) ># sw_diff=
(PID.TID 0000.0001) ># linear_tau=
(PID.TID 0000.0001) ># del_sw=
(PID.TID 0000.0001) ># albedo_value=0.38,
(PID.TID 0000.0001) ># window=
(PID.TID 0000.0001) >  select_incSW = 1,
(PID.TID 0000.0001) >  albedo_value=0.4,
(PID.TID 0000.0001) >  solar_exponent=0.,
(PID.TID 0000.0001) >  wv_exponent = -1.,
(PID.TID 0000.0001) >  ozone_in_SW = 1,
(PID.TID 0000.0001) >  two_stream_SW = 1,
(PID.TID 0000.0001) > /
(PID.TID 0000.0001) >
(PID.TID 0000.0001) > &lscale_cond_nml
(PID.TID 0000.0001) ># hc =
(PID.TID 0000.0001) ># do_evap=
(PID.TID 0000.0001) > /
(PID.TID 0000.0001) >
(PID.TID 0000.0001) > &dargan_bettsmiller_nml
(PID.TID 0000.0001) >#-- default:
(PID.TID 0000.0001) >#   tau_bm = 7200.,
(PID.TID 0000.0001) >#   rhbm   = 0.8,
(PID.TID 0000.0001) >#   do_virtual   = .FALSE.,
(PID.TID 0000.0001) >#   do_shallower = .FALSE.,
(PID.TID 0000.0001) >#   do_changeqref= .FALSE.,
(PID.TID 0000.0001) >#   do_envsat    = .FALSE.,
(PID.TID 0000.0001) >#   do_taucape   = .FALSE.,
(PID.TID 0000.0001) >#     capetaubm  = 900.,
(PID.TID 0000.0001) >#     tau_min    = 2400.,
(PID.TID 0000.0001) >#   do_bm_shift  = .FALSE.,
(PID.TID 0000.0001) >#-- POG choice:
(PID.TID 0000.0001) >#  rhbm = 0.7,
(PID.TID 0000.0001) >   do_virtual= .TRUE.,
(PID.TID 0000.0001) >   do_shallower= .TRUE.,
(PID.TID 0000.0001) > /
(PID.TID 0000.0001) >
(PID.TID 0000.0001) > &surface_flux_nml
(PID.TID 0000.0001) > /
(PID.TID 0000.0001) >
(PID.TID 0000.0001) > &vert_turb_driver_nml
(PID.TID 0000.0001) >#  do_shallow_conv, do_mellor_yamada,
(PID.TID 0000.0001) >#  gust_scheme, constant_gust, use_tau,
(PID.TID 0000.0001) >#  do_molecular_diffusion
(PID.TID 0000.0001) >  do_mellor_yamada=.FALSE.,
(PID.TID 0000.0001) > /
(PID.TID 0000.0001) >
(PID.TID 0000.0001) > &diffusivity_nml
(PID.TID 0000.0001) >#  fixed_depth, depth_0, frac_inner,
(PID.TID 0000.0001) >#  rich_crit_pbl, entr_ratio, parcel_buoy,
(PID.TID 0000.0001) >#  znom, free_atm_diff, free_atm_skyhi_diff,
(PID.TID 0000.0001) >#  pbl_mcm, rich_crit_diff, mix_len, rich_prandtl,
(PID.TID 0000.0001) >#  background_m, background_t, ampns, ampns_max,
(PID.TID 0000.0001) >#  do_virtual_non_mcm
(PID.TID 0000.0001) > /
(PID.TID 0000.0001) >
(PID.TID 0000.0001) > &monin_obukhov_nml
(PID.TID 0000.0001) > /
(PID.TID 0000.0001) >
(PID.TID 0000.0001) > &my25_turb_nml
(PID.TID 0000.0001) > /
(PID.TID 0000.0001) >
(PID.TID 0000.0001) > &shallow_conv_nml
(PID.TID 0000.0001) > /
(PID.TID 0000.0001) >
(PID.TID 0000.0001) > &mixed_layer_nml
(PID.TID 0000.0001) ># evaporation, qflux_amp, depth, qflux_width
(PID.TID 0000.0001) >  depth=50.,
(PID.TID 0000.0001) > /
(PID.TID 0000.0001) >
(PID.TID 0000.0001) 
(PID.TID 0000.0001) LSCALE_COND_INIT: finished reading data.atm_gray
(PID.TID 0000.0001) DARGAN_BETTSMILLER_init: opening data.atm_gray
(PID.TID 0000.0001)  OPEN_COPY_DATA_FILE: opening file data.atm_gray
(PID.TID 0000.0001) // =======================================================
(PID.TID 0000.0001) // Parameter file "data.atm_gray"
(PID.TID 0000.0001) // =======================================================
(PID.TID 0000.0001) >
(PID.TID 0000.0001) > &atmosphere_nml
(PID.TID 0000.0001) >    turb = .TRUE.,
(PID.TID 0000.0001) >    ldry_convection = .false.,
(PID.TID 0000.0001) >    lwet_convection = .TRUE.,
(PID.TID 0000.0001) >    do_virtual = .false.,
(PID.TID 0000.0001) >    two_stream = .true.,
(PID.TID 0000.0001) >    mixed_layer_bc = .false.,
(PID.TID 0000.0001) >    roughness_heat = 0.05,
(PID.TID 0000.0001) >    roughness_moist = 0.05,
(PID.TID 0000.0001) >    roughness_mom = 0.05,
(PID.TID 0000.0001) > /
(PID.TID 0000.0001) >
(PID.TID 0000.0001) > &radiation_nml
(PID.TID 0000.0001) ># solar_constant= 1365.,
(PID.TID 0000.0001) ># del_sol=1.,
(PID.TID 0000.0001) ># ir_tau_eq=
(PID.TID 0000.0001) ># ir_tau_pole=
(PID.TID 0000.0001) ># atm_abs = 0.,
(PID.TID 0000.0001) ># sw_diff=
(PID.TID 0000.0001) ># linear_tau=
(PID.TID 0000.0001) ># del_sw=
(PID.TID 0000.0001) ># albedo_value=0.38,
(PID.TID 0000.0001) ># window=
(PID.TID 0000.0001) >  select_incSW = 1,
(PID.TID 0000.0001) >  albedo_value=0.4,
(PID.TID 0000.0001) >  solar_exponent=0.,
(PID.TID 0000.0001) >  wv_exponent = -1.,
(PID.TID 0000.0001) >  ozone_in_SW = 1,
(PID.TID 0000.0001) >  two_stream_SW = 1,
(PID.TID 0000.0001) > /
(PID.TID 0000.0001) >
(PID.TID 0000.0001) > &lscale_cond_nml
(PID.TID 0000.0001) ># hc =
(PID.TID 0000.0001) ># do_evap=
(PID.TID 0000.0001) > /
(PID.TID 0000.0001) >
(PID.TID 0000.0001) > &dargan_bettsmiller_nml
(PID.TID 0000.0001) >#-- default:
(PID.TID 0000.0001) >#   tau_bm = 7200.,
(PID.TID 0000.0001) >#   rhbm   = 0.8,
(PID.TID 0000.0001) >#   do_virtual   = .FALSE.,
(PID.TID 0000.0001) >#   do_shallower = .FALSE.,
(PID.TID 0000.0001) >#   do_changeqref= .FALSE.,
(PID.TID 0000.0001) >#   do_envsat    = .FALSE.,
(PID.TID 0000.0001) >#   do_taucape   = .FALSE.,
(PID.TID 0000.0001) >#     capetaubm  = 900.,
(PID.TID 0000.0001) >#     tau_min    = 2400.,
(PID.TID 0000.0001) >#   do_bm_shift  = .FALSE.,
(PID.TID 0000.0001) >#-- POG choice:
(PID.TID 0000.0001) >#  rhbm = 0.7,
(PID.TID 0000.0001) >   do_virtual= .TRUE.,
(PID.TID 0000.0001) >   do_shallower= .TRUE.,
(PID.TID 0000.0001) > /
(PID.TID 0000.0001) >
(PID.TID 0000.0001) > &surface_flux_nml
(PID.TID 0000.0001) > /
(PID.TID 0000.0001) >
(PID.TID 0000.0001) > &vert_turb_driver_nml
(PID.TID 0000.0001) >#  do_shallow_conv, do_mellor_yamada,
(PID.TID 0000.0001) >#  gust_scheme, constant_gust, use_tau,
(PID.TID 0000.0001) >#  do_molecular_diffusion
(PID.TID 0000.0001) >  do_mellor_yamada=.FALSE.,
(PID.TID 0000.0001) > /
(PID.TID 0000.0001) >
(PID.TID 0000.0001) > &diffusivity_nml
(PID.TID 0000.0001) >#  fixed_depth, depth_0, frac_inner,
(PID.TID 0000.0001) >#  rich_crit_pbl, entr_ratio, parcel_buoy,
(PID.TID 0000.0001) >#  znom, free_atm_diff, free_atm_skyhi_diff,
(PID.TID 0000.0001) >#  pbl_mcm, rich_crit_diff, mix_len, rich_prandtl,
(PID.TID 0000.0001) >#  background_m, background_t, ampns, ampns_max,
(PID.TID 0000.0001) >#  do_virtual_non_mcm
(PID.TID 0000.0001) > /
(PID.TID 0000.0001) >
(PID.TID 0000.0001) > &monin_obukhov_nml
(PID.TID 0000.0001) > /
(PID.TID 0000.0001) >
(PID.TID 0000.0001) > &my25_turb_nml
(PID.TID 0000.0001) > /
(PID.TID 0000.0001) >
(PID.TID 0000.0001) > &shallow_conv_nml
(PID.TID 0000.0001) > /
(PID.TID 0000.0001) >
(PID.TID 0000.0001) > &mixed_layer_nml
(PID.TID 0000.0001) ># evaporation, qflux_amp, depth, qflux_width
(PID.TID 0000.0001) >  depth=50.,
(PID.TID 0000.0001) > /
(PID.TID 0000.0001) >
(PID.TID 0000.0001) 
(PID.TID 0000.0001) DARGAB_BETTSMILLER_INIT: finished reading data.atm_gray
(PID.TID 0000.0001) RADIATION_INIT: opening data.atm_gray
(PID.TID 0000.0001)  OPEN_COPY_DATA_FILE: opening file data.atm_gray
(PID.TID 0000.0001) // =======================================================
(PID.TID 0000.0001) // Parameter file "data.atm_gray"
(PID.TID 0000.0001) // =======================================================
(PID.TID 0000.0001) >
(PID.TID 0000.0001) > &atmosphere_nml
(PID.TID 0000.0001) >    turb = .TRUE.,
(PID.TID 0000.0001) >    ldry_convection = .false.,
(PID.TID 0000.0001) >    lwet_convection = .TRUE.,
(PID.TID 0000.0001) >    do_virtual = .false.,
(PID.TID 0000.0001) >    two_stream = .true.,
(PID.TID 0000.0001) >    mixed_layer_bc = .false.,
(PID.TID 0000.0001) >    roughness_heat = 0.05,
(PID.TID 0000.0001) >    roughness_moist = 0.05,
(PID.TID 0000.0001) >    roughness_mom = 0.05,
(PID.TID 0000.0001) > /
(PID.TID 0000.0001) >
(PID.TID 0000.0001) > &radiation_nml
(PID.TID 0000.0001) ># solar_constant= 1365.,
(PID.TID 0000.0001) ># del_sol=1.,
(PID.TID 0000.0001) ># ir_tau_eq=
(PID.TID 0000.0001) ># ir_tau_pole=
(PID.TID 0000.0001) ># atm_abs = 0.,
(PID.TID 0000.0001) ># sw_diff=
(PID.TID 0000.0001) ># linear_tau=
(PID.TID 0000.0001) ># del_sw=
(PID.TID 0000.0001) ># albedo_value=0.38,
(PID.TID 0000.0001) ># window=
(PID.TID 0000.0001) >  select_incSW = 1,
(PID.TID 0000.0001) >  albedo_value=0.4,
(PID.TID 0000.0001) >  solar_exponent=0.,
(PID.TID 0000.0001) >  wv_exponent = -1.,
(PID.TID 0000.0001) >  ozone_in_SW = 1,
(PID.TID 0000.0001) >  two_stream_SW = 1,
(PID.TID 0000.0001) > /
(PID.TID 0000.0001) >
(PID.TID 0000.0001) > &lscale_cond_nml
(PID.TID 0000.0001) ># hc =
(PID.TID 0000.0001) ># do_evap=
(PID.TID 0000.0001) > /
(PID.TID 0000.0001) >
(PID.TID 0000.0001) > &dargan_bettsmiller_nml
(PID.TID 0000.0001) >#-- default:
(PID.TID 0000.0001) >#   tau_bm = 7200.,
(PID.TID 0000.0001) >#   rhbm   = 0.8,
(PID.TID 0000.0001) >#   do_virtual   = .FALSE.,
(PID.TID 0000.0001) >#   do_shallower = .FALSE.,
(PID.TID 0000.0001) >#   do_changeqref= .FALSE.,
(PID.TID 0000.0001) >#   do_envsat    = .FALSE.,
(PID.TID 0000.0001) >#   do_taucape   = .FALSE.,
(PID.TID 0000.0001) >#     capetaubm  = 900.,
(PID.TID 0000.0001) >#     tau_min    = 2400.,
(PID.TID 0000.0001) >#   do_bm_shift  = .FALSE.,
(PID.TID 0000.0001) >#-- POG choice:
(PID.TID 0000.0001) >#  rhbm = 0.7,
(PID.TID 0000.0001) >   do_virtual= .TRUE.,
(PID.TID 0000.0001) >   do_shallower= .TRUE.,
(PID.TID 0000.0001) > /
(PID.TID 0000.0001) >
(PID.TID 0000.0001) > &surface_flux_nml
(PID.TID 0000.0001) > /
(PID.TID 0000.0001) >
(PID.TID 0000.0001) > &vert_turb_driver_nml
(PID.TID 0000.0001) >#  do_shallow_conv, do_mellor_yamada,
(PID.TID 0000.0001) >#  gust_scheme, constant_gust, use_tau,
(PID.TID 0000.0001) >#  do_molecular_diffusion
(PID.TID 0000.0001) >  do_mellor_yamada=.FALSE.,
(PID.TID 0000.0001) > /
(PID.TID 0000.0001) >
(PID.TID 0000.0001) > &diffusivity_nml
(PID.TID 0000.0001) >#  fixed_depth, depth_0, frac_inner,
(PID.TID 0000.0001) >#  rich_crit_pbl, entr_ratio, parcel_buoy,
(PID.TID 0000.0001) >#  znom, free_atm_diff, free_atm_skyhi_diff,
(PID.TID 0000.0001) >#  pbl_mcm, rich_crit_diff, mix_len, rich_prandtl,
(PID.TID 0000.0001) >#  background_m, background_t, ampns, ampns_max,
(PID.TID 0000.0001) >#  do_virtual_non_mcm
(PID.TID 0000.0001) > /
(PID.TID 0000.0001) >
(PID.TID 0000.0001) > &monin_obukhov_nml
(PID.TID 0000.0001) > /
(PID.TID 0000.0001) >
(PID.TID 0000.0001) > &my25_turb_nml
(PID.TID 0000.0001) > /
(PID.TID 0000.0001) >
(PID.TID 0000.0001) > &shallow_conv_nml
(PID.TID 0000.0001) > /
(PID.TID 0000.0001) >
(PID.TID 0000.0001) > &mixed_layer_nml
(PID.TID 0000.0001) ># evaporation, qflux_amp, depth, qflux_width
(PID.TID 0000.0001) >  depth=50.,
(PID.TID 0000.0001) > /
(PID.TID 0000.0001) >
(PID.TID 0000.0001) 
(PID.TID 0000.0001) RADIATION_INIT: finished reading data.atm_gray
(PID.TID 0000.0001) VERT_TURB_DRIVER_INIT: opening data.atm_gray
(PID.TID 0000.0001)  OPEN_COPY_DATA_FILE: opening file data.atm_gray
(PID.TID 0000.0001) // =======================================================
(PID.TID 0000.0001) // Parameter file "data.atm_gray"
(PID.TID 0000.0001) // =======================================================
(PID.TID 0000.0001) >
(PID.TID 0000.0001) > &atmosphere_nml
(PID.TID 0000.0001) >    turb = .TRUE.,
(PID.TID 0000.0001) >    ldry_convection = .false.,
(PID.TID 0000.0001) >    lwet_convection = .TRUE.,
(PID.TID 0000.0001) >    do_virtual = .false.,
(PID.TID 0000.0001) >    two_stream = .true.,
(PID.TID 0000.0001) >    mixed_layer_bc = .false.,
(PID.TID 0000.0001) >    roughness_heat = 0.05,
(PID.TID 0000.0001) >    roughness_moist = 0.05,
(PID.TID 0000.0001) >    roughness_mom = 0.05,
(PID.TID 0000.0001) > /
(PID.TID 0000.0001) >
(PID.TID 0000.0001) > &radiation_nml
(PID.TID 0000.0001) ># solar_constant= 1365.,
(PID.TID 0000.0001) ># del_sol=1.,
(PID.TID 0000.0001) ># ir_tau_eq=
(PID.TID 0000.0001) ># ir_tau_pole=
(PID.TID 0000.0001) ># atm_abs = 0.,
(PID.TID 0000.0001) ># sw_diff=
(PID.TID 0000.0001) ># linear_tau=
(PID.TID 0000.0001) ># del_sw=
(PID.TID 0000.0001) ># albedo_value=0.38,
(PID.TID 0000.0001) ># window=
(PID.TID 0000.0001) >  select_incSW = 1,
(PID.TID 0000.0001) >  albedo_value=0.4,
(PID.TID 0000.0001) >  solar_exponent=0.,
(PID.TID 0000.0001) >  wv_exponent = -1.,
(PID.TID 0000.0001) >  ozone_in_SW = 1,
(PID.TID 0000.0001) >  two_stream_SW = 1,
(PID.TID 0000.0001) > /
(PID.TID 0000.0001) >
(PID.TID 0000.0001) > &lscale_cond_nml
(PID.TID 0000.0001) ># hc =
(PID.TID 0000.0001) ># do_evap=
(PID.TID 0000.0001) > /
(PID.TID 0000.0001) >
(PID.TID 0000.0001) > &dargan_bettsmiller_nml
(PID.TID 0000.0001) >#-- default:
(PID.TID 0000.0001) >#   tau_bm = 7200.,
(PID.TID 0000.0001) >#   rhbm   = 0.8,
(PID.TID 0000.0001) >#   do_virtual   = .FALSE.,
(PID.TID 0000.0001) >#   do_shallower = .FALSE.,
(PID.TID 0000.0001) >#   do_changeqref= .FALSE.,
(PID.TID 0000.0001) >#   do_envsat    = .FALSE.,
(PID.TID 0000.0001) >#   do_taucape   = .FALSE.,
(PID.TID 0000.0001) >#     capetaubm  = 900.,
(PID.TID 0000.0001) >#     tau_min    = 2400.,
(PID.TID 0000.0001) >#   do_bm_shift  = .FALSE.,
(PID.TID 0000.0001) >#-- POG choice:
(PID.TID 0000.0001) >#  rhbm = 0.7,
(PID.TID 0000.0001) >   do_virtual= .TRUE.,
(PID.TID 0000.0001) >   do_shallower= .TRUE.,
(PID.TID 0000.0001) > /
(PID.TID 0000.0001) >
(PID.TID 0000.0001) > &surface_flux_nml
(PID.TID 0000.0001) > /
(PID.TID 0000.0001) >
(PID.TID 0000.0001) > &vert_turb_driver_nml
(PID.TID 0000.0001) >#  do_shallow_conv, do_mellor_yamada,
(PID.TID 0000.0001) >#  gust_scheme, constant_gust, use_tau,
(PID.TID 0000.0001) >#  do_molecular_diffusion
(PID.TID 0000.0001) >  do_mellor_yamada=.FALSE.,
(PID.TID 0000.0001) > /
(PID.TID 0000.0001) >
(PID.TID 0000.0001) > &diffusivity_nml
(PID.TID 0000.0001) >#  fixed_depth, depth_0, frac_inner,
(PID.TID 0000.0001) >#  rich_crit_pbl, entr_ratio, parcel_buoy,
(PID.TID 0000.0001) >#  znom, free_atm_diff, free_atm_skyhi_diff,
(PID.TID 0000.0001) >#  pbl_mcm, rich_crit_diff, mix_len, rich_prandtl,
(PID.TID 0000.0001) >#  background_m, background_t, ampns, ampns_max,
(PID.TID 0000.0001) >#  do_virtual_non_mcm
(PID.TID 0000.0001) > /
(PID.TID 0000.0001) >
(PID.TID 0000.0001) > &monin_obukhov_nml
(PID.TID 0000.0001) > /
(PID.TID 0000.0001) >
(PID.TID 0000.0001) > &my25_turb_nml
(PID.TID 0000.0001) > /
(PID.TID 0000.0001) >
(PID.TID 0000.0001) > &shallow_conv_nml
(PID.TID 0000.0001) > /
(PID.TID 0000.0001) >
(PID.TID 0000.0001) > &mixed_layer_nml
(PID.TID 0000.0001) ># evaporation, qflux_amp, depth, qflux_width
(PID.TID 0000.0001) >  depth=50.,
(PID.TID 0000.0001) > /
(PID.TID 0000.0001) >
(PID.TID 0000.0001) 
(PID.TID 0000.0001) VERT_TURB_DRIVER_INIT: finished reading data.atm_gray
(PID.TID 0000.0001)  MDS_READ_FIELD: opening global file: Qflux_diagnosed.bin
(PID.TID 0000.0001)  MDS_READ_FIELD: opening global file: ape_ozone_in.bin
(PID.TID 0000.0001) ------------------------------------------------------------
(PID.TID 0000.0001) DIAGNOSTICS_SET_LEVELS: done
(PID.TID 0000.0001)  Total Nb of available Diagnostics: ndiagt=   229
(PID.TID 0000.0001)  write list of available Diagnostics to file: available_diagnostics.log
(PID.TID 0000.0001) SETDIAG: Allocate  1 x  1 Levels for Diagnostic #    23 ETAN
(PID.TID 0000.0001) SETDIAG: Allocate  1 x  1 Levels for Diagnostic #    24 ETANSQ
(PID.TID 0000.0001) SETDIAG: Allocate  1 x  1 Levels for Diagnostic #    25 DETADT2
(PID.TID 0000.0001) SETDIAG: Allocate  1 x  1 Levels for Diagnostic #   199 AtPhCnvP
(PID.TID 0000.0001) SETDIAG: Allocate  1 x  1 Levels for Diagnostic #   200 AtPhLscP
(PID.TID 0000.0001) SETDIAG: Allocate  1 x  1 Levels for Diagnostic #   218 AtPhCAPE
(PID.TID 0000.0001) SETDIAG: Allocate  1 x  1 Levels for Diagnostic #   214 AtPhSens
(PID.TID 0000.0001) SETDIAG: Allocate  1 x  1 Levels for Diagnostic #   215 AtPhEvap
(PID.TID 0000.0001) SETDIAG: Allocate  1 x  1 Levels for Diagnostic #   216 AtPhTauX
(PID.TID 0000.0001) SETDIAG: Allocate  1 x  1 Levels for Diagnostic #   217 AtPhTauY
(PID.TID 0000.0001) SETDIAG: Allocate  1 x  1 Levels for Diagnostic #   192 AtPh_SST
(PID.TID 0000.0001) SETDIAG: Allocate  1 x  1 Levels for Diagnostic #   208 AtPhNTSR
(PID.TID 0000.0001) SETDIAG: Allocate  1 x  1 Levels for Diagnostic #   209 AtPhOLR
(PID.TID 0000.0001) SETDIAG: Allocate  1 x  1 Levels for Diagnostic #   211 AtPhNSSR
(PID.TID 0000.0001) SETDIAG: Allocate  1 x  1 Levels for Diagnostic #   212 AtPhDSLR
(PID.TID 0000.0001) SETDIAG: Allocate  1 x  1 Levels for Diagnostic #   213 AtPhUSLR
(PID.TID 0000.0001) SETDIAG: Allocate 40 x  1 Levels for Diagnostic #    29 UVEL
(PID.TID 0000.0001) SETDIAG: Allocate 40 x  1 Levels for Diagnostic #    30 VVEL
(PID.TID 0000.0001) SETDIAG: Allocate 40 x  1 Levels for Diagnostic #    31 WVEL
(PID.TID 0000.0001) SETDIAG: Allocate 40 x  1 Levels for Diagnostic #    26 THETA
(PID.TID 0000.0001) SETDIAG: Allocate 40 x  1 Levels for Diagnostic #    27 SALT
(PID.TID 0000.0001) SETDIAG: Allocate 40 x  1 Levels for Diagnostic #    34 UVELSQ
(PID.TID 0000.0001) SETDIAG: Allocate 40 x  1 Levels for Diagnostic #    35 VVELSQ
(PID.TID 0000.0001) SETDIAG: Allocate 40 x  1 Levels for Diagnostic #    36 WVELSQ
(PID.TID 0000.0001) SETDIAG: Allocate 40 x  1 Levels for Diagnostic #    32 THETASQ
(PID.TID 0000.0001) SETDIAG: Allocate 40 x  1 Levels for Diagnostic #    33 SALTSQ
(PID.TID 0000.0001) SETDIAG: Allocate 40 x  1 Levels for Diagnostic #    43 UVELMASS
(PID.TID 0000.0001) SETDIAG: Allocate 40 x  1 Levels for Diagnostic #    44 VVELMASS
(PID.TID 0000.0001) SETDIAG: Allocate 40 x  1 Levels for Diagnostic #    37 UE_VEL_C
(PID.TID 0000.0001) SETDIAG: Allocate 40 x  1 Levels for Diagnostic #    38 VN_VEL_C
(PID.TID 0000.0001) SETDIAG: Allocate 40 x  1 Levels for Diagnostic #    39 UV_VEL_C
(PID.TID 0000.0001) SETDIAG: Allocate 40 x  1 Levels for Diagnostic #    41 WU_VEL
(PID.TID 0000.0001) SETDIAG: Allocate 40 x  1 Levels for Diagnostic #    42 WV_VEL
(PID.TID 0000.0001) SETDIAG: Allocate 40 x  1 Levels for Diagnostic #    54 UVELTH
(PID.TID 0000.0001) SETDIAG: Allocate 40 x  1 Levels for Diagnostic #    55 VVELTH
(PID.TID 0000.0001) SETDIAG: Allocate 40 x  1 Levels for Diagnostic #    56 WVELTH
(PID.TID 0000.0001) SETDIAG: Allocate 40 x  1 Levels for Diagnostic #    28 RELHUM
(PID.TID 0000.0001) SETDIAG: Allocate 40 x  1 Levels for Diagnostic #   193 AtPhdTdt
(PID.TID 0000.0001) SETDIAG: Allocate 40 x  1 Levels for Diagnostic #   194 AtPhdQdt
(PID.TID 0000.0001) SETDIAG: Allocate 40 x  1 Levels for Diagnostic #   195 AtPhdUdt
(PID.TID 0000.0001) SETDIAG: Allocate 40 x  1 Levels for Diagnostic #   196 AtPhdVdt
(PID.TID 0000.0001) SETDIAG: Allocate 40 x  1 Levels for Diagnostic #   229 AtPhDisH
(PID.TID 0000.0001) SETDIAG: Allocate 40 x  1 Levels for Diagnostic #   100 HeatDiss
(PID.TID 0000.0001) SETDIAG: Allocate 40 x  1 Levels for Diagnostic #    99 MoistCor
(PID.TID 0000.0001) SETDIAG: Allocate 40 x  1 Levels for Diagnostic #   191 SHAP_dKE
(PID.TID 0000.0001) SETDIAG: Allocate 40 x  1 Levels for Diagnostic #   202 AtPhdTrd
(PID.TID 0000.0001) SETDIAG: Allocate 40 x  1 Levels for Diagnostic #   201 AtPhdTlc
(PID.TID 0000.0001) SETDIAG: Allocate 40 x  1 Levels for Diagnostic #   226 AtPhdTcv
(PID.TID 0000.0001) - NOTE - SETDIAG:  Diagnostic  #   199 AtPhCnvP is already set
(PID.TID 0000.0001) - NOTE - SETDIAG:  Diagnostic  #   200 AtPhLscP is already set
(PID.TID 0000.0001) - NOTE - SETDIAG:  Diagnostic  #   218 AtPhCAPE is already set
(PID.TID 0000.0001) SETDIAG: Allocate  1 x  1 Levels for Diagnostic #   219 AtPhCnIn
(PID.TID 0000.0001) SETDIAG: Allocate  1 x  1 Levels for Diagnostic #   220 AtPhKlzb
(PID.TID 0000.0001) SETDIAG: Allocate  1 x  1 Levels for Diagnostic #   221 AtPhConv
(PID.TID 0000.0001) SETDIAG: Allocate  1 x  1 Levels for Diagnostic #   222 AtPhRlxT
(PID.TID 0000.0001) SETDIAG: Allocate  1 x  1 Levels for Diagnostic #   223 AtPhRlxQ
(PID.TID 0000.0001) SETDIAG: Allocate 41 x  1 Levels for Diagnostic #   203 AtPhNSR
(PID.TID 0000.0001) SETDIAG: Allocate 41 x  1 Levels for Diagnostic #   204 AtPhNLR
(PID.TID 0000.0001) SETDIAG: Allocate 41 x  1 Levels for Diagnostic #   205 AtPhDSR
(PID.TID 0000.0001) SETDIAG: Allocate 41 x  1 Levels for Diagnostic #   206 AtPhDLR
(PID.TID 0000.0001)   space allocated for all diagnostics:    1465 levels
(PID.TID 0000.0001)   set mate pointer for diag #   216  AtPhTauX , Parms: UM      L1 , mate:   217
(PID.TID 0000.0001)   set mate pointer for diag #   217  AtPhTauY , Parms: VM      L1 , mate:   216
(PID.TID 0000.0001)   set mate pointer for diag #    29  UVEL     , Parms: UUR     MR , mate:    30
(PID.TID 0000.0001)   set mate pointer for diag #    30  VVEL     , Parms: VVR     MR , mate:    29
(PID.TID 0000.0001)   set mate pointer for diag #    34  UVELSQ   , Parms: UURP    MR , mate:    35
(PID.TID 0000.0001)   set mate pointer for diag #    35  VVELSQ   , Parms: VVRP    MR , mate:    34
(PID.TID 0000.0001)   set mate pointer for diag #    43  UVELMASS , Parms: UUr     MR , mate:    44
(PID.TID 0000.0001)   set mate pointer for diag #    44  VVELMASS , Parms: VVr     MR , mate:    43
(PID.TID 0000.0001)   set mate pointer for diag #    37  UE_VEL_C , Parms: UMR     MR , mate:    38
(PID.TID 0000.0001)   set mate pointer for diag #    38  VN_VEL_C , Parms: VMR     MR , mate:    37
(PID.TID 0000.0001)   set mate pointer for diag #    39  UV_VEL_C , Parms: UMR     MR , mate:    39
(PID.TID 0000.0001)   set mate pointer for diag #    54  UVELTH   , Parms: UUR     MR , mate:    55
(PID.TID 0000.0001)   set mate pointer for diag #    55  VVELTH   , Parms: VVR     MR , mate:    54
(PID.TID 0000.0001)   set mate pointer for diag #   195  AtPhdUdt , Parms: UMR     MR , mate:   196
(PID.TID 0000.0001)   set mate pointer for diag #   196  AtPhdVdt , Parms: VMR     MR , mate:   195
(PID.TID 0000.0001) DIAGNOSTICS_SET_POINTERS: Set levels for Outp.Stream: surfDiag
(PID.TID 0000.0001)  Levels:       1.
(PID.TID 0000.0001) DIAGNOSTICS_SET_POINTERS: Set levels for Outp.Stream: dynDiag
(PID.TID 0000.0001)  Levels:       1.   2.   3.   4.   5.   6.   7.   8.   9.  10.  11.  12.  13.  14.  15.  16.  17.  18.  19.  20.
(PID.TID 0000.0001)  Levels:      21.  22.  23.  24.  25.  26.  27.  28.  29.  30.  31.  32.  33.  34.  35.  36.  37.  38.  39.  40.
(PID.TID 0000.0001) DIAGNOSTICS_SET_POINTERS: Set levels for Outp.Stream: physDiag
(PID.TID 0000.0001)  Levels:       1.   2.   3.   4.   5.   6.   7.   8.   9.  10.  11.  12.  13.  14.  15.  16.  17.  18.  19.  20.
(PID.TID 0000.0001)  Levels:      21.  22.  23.  24.  25.  26.  27.  28.  29.  30.  31.  32.  33.  34.  35.  36.  37.  38.  39.  40.
(PID.TID 0000.0001) DIAGNOSTICS_SET_POINTERS: Set levels for Outp.Stream: convDiag
(PID.TID 0000.0001)  Levels:       1.
(PID.TID 0000.0001) DIAGNOSTICS_SET_POINTERS: Set levels for Outp.Stream: radDiag
(PID.TID 0000.0001)  Levels:       1.   2.   3.   4.   5.   6.   7.   8.   9.  10.  11.  12.  13.  14.  15.  16.  17.  18.  19.  20.
(PID.TID 0000.0001)  Levels:      21.  22.  23.  24.  25.  26.  27.  28.  29.  30.  31.  32.  33.  34.  35.  36.  37.  38.  39.  40.
(PID.TID 0000.0001)  Levels:      41.
(PID.TID 0000.0001) DIAGNOSTICS_SET_POINTERS: done
(PID.TID 0000.0001) ------------------------------------------------------------
(PID.TID 0000.0001) DIAGSTATS_SET_REGIONS: define no region
(PID.TID 0000.0001) ------------------------------------------------------------
(PID.TID 0000.0001) SETDIAG: Allocate  1 Levels for Stats-Diag #    23 ETAN
(PID.TID 0000.0001) SETDIAG: Allocate 40 Levels for Stats-Diag #    26 THETA
(PID.TID 0000.0001) SETDIAG: Allocate 40 Levels for Stats-Diag #    27 SALT
(PID.TID 0000.0001) SETDIAG: Allocate 40 Levels for Stats-Diag #    28 RELHUM
(PID.TID 0000.0001) SETDIAG: Allocate 40 Levels for Stats-Diag #    37 UE_VEL_C
(PID.TID 0000.0001) SETDIAG: Allocate 40 Levels for Stats-Diag #    38 VN_VEL_C
(PID.TID 0000.0001) SETDIAG: Allocate 40 Levels for Stats-Diag #    31 WVEL
(PID.TID 0000.0001) SETDIAG: Allocate 40 Levels for Stats-Diag #   193 AtPhdTdt
(PID.TID 0000.0001) SETDIAG: Allocate 40 Levels for Stats-Diag #   194 AtPhdQdt
(PID.TID 0000.0001) SETDIAG: Allocate 40 Levels for Stats-Diag #   195 AtPhdUdt
(PID.TID 0000.0001) SETDIAG: Allocate 40 Levels for Stats-Diag #   196 AtPhdVdt
(PID.TID 0000.0001) SETDIAG: Allocate 40 Levels for Stats-Diag #   227 AtPhdtTg
(PID.TID 0000.0001) SETDIAG: Allocate 40 Levels for Stats-Diag #   228 AtPhdtQg
(PID.TID 0000.0001) SETDIAG: Allocate 40 Levels for Stats-Diag #   197 AtPhDifT
(PID.TID 0000.0001) SETDIAG: Allocate 40 Levels for Stats-Diag #   198 AtPhDifM
(PID.TID 0000.0001) SETDIAG: Allocate 40 Levels for Stats-Diag #   229 AtPhDisH
(PID.TID 0000.0001) SETDIAG: Allocate 40 Levels for Stats-Diag #   100 HeatDiss
(PID.TID 0000.0001) SETDIAG: Allocate 40 Levels for Stats-Diag #    99 MoistCor
(PID.TID 0000.0001) SETDIAG: Allocate 40 Levels for Stats-Diag #   191 SHAP_dKE
(PID.TID 0000.0001) SETDIAG: Allocate 40 Levels for Stats-Diag #   202 AtPhdTrd
(PID.TID 0000.0001) SETDIAG: Allocate 40 Levels for Stats-Diag #   201 AtPhdTlc
(PID.TID 0000.0001) SETDIAG: Allocate 40 Levels for Stats-Diag #   226 AtPhdTcv
(PID.TID 0000.0001) SETDIAG: Allocate  1 Levels for Stats-Diag #   214 AtPhSens
(PID.TID 0000.0001) SETDIAG: Allocate  1 Levels for Stats-Diag #   215 AtPhEvap
(PID.TID 0000.0001) SETDIAG: Allocate  1 Levels for Stats-Diag #   216 AtPhTauX
(PID.TID 0000.0001) SETDIAG: Allocate  1 Levels for Stats-Diag #   217 AtPhTauY
(PID.TID 0000.0001) SETDIAG: Allocate  1 Levels for Stats-Diag #   199 AtPhCnvP
(PID.TID 0000.0001) SETDIAG: Allocate  1 Levels for Stats-Diag #   200 AtPhLscP
(PID.TID 0000.0001) SETDIAG: Allocate  1 Levels for Stats-Diag #   218 AtPhCAPE
(PID.TID 0000.0001) SETDIAG: Allocate  1 Levels for Stats-Diag #   192 AtPh_SST
(PID.TID 0000.0001) SETDIAG: Allocate  1 Levels for Stats-Diag #   208 AtPhNTSR
(PID.TID 0000.0001) SETDIAG: Allocate  1 Levels for Stats-Diag #   209 AtPhOLR
(PID.TID 0000.0001) SETDIAG: Allocate  1 Levels for Stats-Diag #   211 AtPhNSSR
(PID.TID 0000.0001) SETDIAG: Allocate  1 Levels for Stats-Diag #   212 AtPhDSLR
(PID.TID 0000.0001) SETDIAG: Allocate  1 Levels for Stats-Diag #   213 AtPhUSLR
(PID.TID 0000.0001) SETDIAG: Allocate 41 Levels for Stats-Diag #   203 AtPhNSR
(PID.TID 0000.0001) SETDIAG: Allocate 41 Levels for Stats-Diag #   204 AtPhNLR
(PID.TID 0000.0001) SETDIAG: Allocate 41 Levels for Stats-Diag #   205 AtPhDSR
(PID.TID 0000.0001) SETDIAG: Allocate 41 Levels for Stats-Diag #   206 AtPhDLR
(PID.TID 0000.0001)   space allocated for all stats-diags:    1018 levels
(PID.TID 0000.0001) DIAGSTATS_SET_POINTERS: done
(PID.TID 0000.0001) ------------------------------------------------------------
(PID.TID 0000.0001) DIAGSTATS_INI_IO: open file: dynStDiag.0004320000.txt , unit=     9
(PID.TID 0000.0001) DIAGSTATS_INI_IO: open file: phyStDiag.0004320000.txt , unit=    10
(PID.TID 0000.0001) DIAGSTATS_INI_IO: open file: flxStDiag.0004320000.txt , unit=    16
(PID.TID 0000.0001) INI_GLOBAL_DOMAIN: Found  24 CS-corner Pts in the domain
(PID.TID 0000.0001) %MON fCori_max                    =   1.4574827780704E-04
(PID.TID 0000.0001) %MON fCori_min                    =  -1.4574827780704E-04
(PID.TID 0000.0001) %MON fCori_mean                   =   0.0000000000000E+00
(PID.TID 0000.0001) %MON fCori_sd                     =   8.4202189509968E-05
(PID.TID 0000.0001) %MON fCoriG_max                   =   1.4584247033981E-04
(PID.TID 0000.0001) %MON fCoriG_min                   =  -1.4584247033981E-04
(PID.TID 0000.0001) %MON fCoriG_mean                  =   2.2587545260115E-21
(PID.TID 0000.0001) %MON fCoriG_sd                    =   8.4202189509968E-05
(PID.TID 0000.0001) %MON fCoriCos_max                 =   1.4580166994612E-04
(PID.TID 0000.0001) %MON fCoriCos_min                 =   5.2407700865903E-06
(PID.TID 0000.0001) %MON fCoriCos_mean                =   1.1514045869113E-04
(PID.TID 0000.0001) %MON fCoriCos_sd                  =   3.0375849106513E-05
(PID.TID 0000.0001) INI_CG2D: CG2D normalisation factor =  9.9120595049417990E-06
(PID.TID 0000.0001) INI_CG2D: cg2dTolerance = 1.403834553666938E-09 (Area=5.0986421043E+14)
(PID.TID 0000.0001) 
(PID.TID 0000.0001) // =======================================================
(PID.TID 0000.0001) // Model configuration
(PID.TID 0000.0001) // =======================================================
(PID.TID 0000.0001) //
(PID.TID 0000.0001) // "Physical" paramters ( PARM01 in namelist )
(PID.TID 0000.0001) //
(PID.TID 0000.0001) buoyancyRelation = /* Type of relation to get Buoyancy */
(PID.TID 0000.0001)               'ATMOSPHERIC'
(PID.TID 0000.0001)     ;
(PID.TID 0000.0001) fluidIsAir   =  /* fluid major constituent is Air */
(PID.TID 0000.0001)                   T
(PID.TID 0000.0001)     ;
(PID.TID 0000.0001) fluidIsWater =  /* fluid major constituent is Water */
(PID.TID 0000.0001)                   F
(PID.TID 0000.0001)     ;
(PID.TID 0000.0001) usingPCoords =  /* use p (or p*) vertical coordinate */
(PID.TID 0000.0001)                   T
(PID.TID 0000.0001)     ;
(PID.TID 0000.0001) usingZCoords =  /* use z (or z*) vertical coordinate */
(PID.TID 0000.0001)                   F
(PID.TID 0000.0001)     ;
(PID.TID 0000.0001) tRef =   /* Reference temperature profile ( oC or K ) */
(PID.TID 0000.0001)                 2.877000000000000E+02,      /* K =  1 */
(PID.TID 0000.0001)                 2.884000000000000E+02,      /* K =  2 */
(PID.TID 0000.0001)                 2.893000000000000E+02,      /* K =  3 */
(PID.TID 0000.0001)                 2.902000000000000E+02,      /* K =  4 */
(PID.TID 0000.0001)                 2.913000000000000E+02,      /* K =  5 */
(PID.TID 0000.0001)                 2.928000000000000E+02,      /* K =  6 */
(PID.TID 0000.0001)                 2.945000000000000E+02,      /* K =  7 */
(PID.TID 0000.0001)                 2.964000000000000E+02,      /* K =  8 */
(PID.TID 0000.0001)                 2.985000000000000E+02,      /* K =  9 */
(PID.TID 0000.0001)                 3.007000000000000E+02,      /* K = 10 */
(PID.TID 0000.0001)                 3.031000000000000E+02,      /* K = 11 */
(PID.TID 0000.0001)                 3.057000000000000E+02,      /* K = 12 */
(PID.TID 0000.0001)                 3.087000000000000E+02,      /* K = 13 */
(PID.TID 0000.0001)                 3.120000000000000E+02,      /* K = 14 */
(PID.TID 0000.0001)                 3.157000000000000E+02,      /* K = 15 */
(PID.TID 0000.0001)                 3.201000000000000E+02,      /* K = 16 */
(PID.TID 0000.0001)                 3.252000000000000E+02,      /* K = 17 */
(PID.TID 0000.0001)                 3.309000000000000E+02,      /* K = 18 */
(PID.TID 0000.0001)                 3.484000000000000E+02,      /* K = 19 */
(PID.TID 0000.0001)                 3.710000000000000E+02,      /* K = 20 */
(PID.TID 0000.0001)                 3.973000000000000E+02,      /* K = 21 */
(PID.TID 0000.0001)                 4.280000000000000E+02,      /* K = 22 */
(PID.TID 0000.0001)                 4.635000000000000E+02,      /* K = 23 */
(PID.TID 0000.0001)                 5.039000000000000E+02,      /* K = 24 */
(PID.TID 0000.0001)                 5.534000000000000E+02,      /* K = 25 */
(PID.TID 0000.0001)                 6.076000000000000E+02,      /* K = 26 */
(PID.TID 0000.0001)                 6.652000000000000E+02,      /* K = 27 */
(PID.TID 0000.0001)                 7.328000000000000E+02,      /* K = 28 */
(PID.TID 0000.0001)                 8.078000000000000E+02,      /* K = 29 */
(PID.TID 0000.0001)                 8.865000000000000E+02,      /* K = 30 */
(PID.TID 0000.0001)                 9.885000000000000E+02,      /* K = 31 */
(PID.TID 0000.0001)                 1.109400000000000E+03,      /* K = 32 */
(PID.TID 0000.0001)                 1.258100000000000E+03,      /* K = 33 */
(PID.TID 0000.0001)                 1.460500000000000E+03,      /* K = 34 */
(PID.TID 0000.0001)                 1.750600000000000E+03,      /* K = 35 */
(PID.TID 0000.0001)                 2.119000000000000E+03,      /* K = 36 */
(PID.TID 0000.0001)                 2.463900000000000E+03,      /* K = 37 */
(PID.TID 0000.0001)                 2.878400000000000E+03,      /* K = 38 */
(PID.TID 0000.0001)                 3.470200000000000E+03,      /* K = 39 */
(PID.TID 0000.0001)                 4.327700000000000E+03       /* K = 40 */
(PID.TID 0000.0001)     ;
(PID.TID 0000.0001) sRef =   /* Reference salinity profile ( psu ) */
(PID.TID 0000.0001)    40 @  0.000000000000000E+00              /* K =  1: 40 */
(PID.TID 0000.0001)     ;
(PID.TID 0000.0001) useStrainTensionVisc= /* Use StrainTension Form of Viscous Operator */
(PID.TID 0000.0001)                   F
(PID.TID 0000.0001)     ;
(PID.TID 0000.0001) useVariableVisc = /* Use variable horizontal viscosity */
(PID.TID 0000.0001)                   F
(PID.TID 0000.0001)     ;
(PID.TID 0000.0001) useHarmonicVisc = /* Use harmonic horizontal viscosity */
(PID.TID 0000.0001)                   F
(PID.TID 0000.0001)     ;
(PID.TID 0000.0001) useBiharmonicVisc= /* Use biharmonic horiz.  viscosity */
(PID.TID 0000.0001)                   F
(PID.TID 0000.0001)     ;
(PID.TID 0000.0001) useSmag3D = /* Use isotropic 3-D Smagorinsky viscosity */
(PID.TID 0000.0001)                   F
(PID.TID 0000.0001)     ;
(PID.TID 0000.0001) viscAh  =   /* Lateral harmonic viscosity ( m^2/s ) */
(PID.TID 0000.0001)                 0.000000000000000E+00
(PID.TID 0000.0001)     ;
(PID.TID 0000.0001) viscA4  =   /* Lateral biharmonic viscosity ( m^4/s ) */
(PID.TID 0000.0001)                 0.000000000000000E+00
(PID.TID 0000.0001)     ;
(PID.TID 0000.0001) no_slip_sides =  /* Viscous BCs: No-slip sides */
(PID.TID 0000.0001)                   F
(PID.TID 0000.0001)     ;
(PID.TID 0000.0001) sideDragFactor = /* side-drag scaling factor (non-dim) */
(PID.TID 0000.0001)                 2.000000000000000E+00
(PID.TID 0000.0001)     ;
(PID.TID 0000.0001) viscArNr = /* vertical profile of vertical viscosity (Pa^2/s )*/
(PID.TID 0000.0001)    40 @  0.000000000000000E+00              /* K =  1: 40 */
(PID.TID 0000.0001)     ;
(PID.TID 0000.0001) no_slip_bottom =  /* Viscous BCs: No-slip bottom */
(PID.TID 0000.0001)                   F
(PID.TID 0000.0001)     ;
(PID.TID 0000.0001) bottomVisc_pCell = /* Partial-cell in bottom Visc. BC */
(PID.TID 0000.0001)                   F
(PID.TID 0000.0001)     ;
(PID.TID 0000.0001) bottomDragLinear = /* linear bottom-drag coefficient ( m/s ) */
(PID.TID 0000.0001)                 0.000000000000000E+00
(PID.TID 0000.0001)     ;
(PID.TID 0000.0001) bottomDragQuadratic = /* quadratic bottom-drag coefficient (-) */
(PID.TID 0000.0001)                 0.000000000000000E+00
(PID.TID 0000.0001)     ;
(PID.TID 0000.0001) selectBotDragQuadr = /* select quadratic bottom drag options */
(PID.TID 0000.0001)                      -1
(PID.TID 0000.0001)     ;
(PID.TID 0000.0001) diffKhT =   /* Laplacian diffusion of heat laterally ( m^2/s ) */
(PID.TID 0000.0001)                 0.000000000000000E+00
(PID.TID 0000.0001)     ;
(PID.TID 0000.0001) diffK4T =   /* Biharmonic diffusion of heat laterally ( m^4/s ) */
(PID.TID 0000.0001)                 0.000000000000000E+00
(PID.TID 0000.0001)     ;
(PID.TID 0000.0001) diffKhS =   /* Laplacian diffusion of salt laterally ( m^2/s ) */
(PID.TID 0000.0001)                 0.000000000000000E+00
(PID.TID 0000.0001)     ;
(PID.TID 0000.0001) diffK4S =   /* Biharmonic diffusion of salt laterally ( m^4/s ) */
(PID.TID 0000.0001)                 0.000000000000000E+00
(PID.TID 0000.0001)     ;
(PID.TID 0000.0001) diffKrNrT = /* vertical profile of vertical diffusion of Temp (Pa^2/s )*/
(PID.TID 0000.0001)    40 @  0.000000000000000E+00              /* K =  1: 40 */
(PID.TID 0000.0001)     ;
(PID.TID 0000.0001) diffKrNrS = /* vertical profile of vertical diffusion of Salt (Pa^2/s )*/
(PID.TID 0000.0001)    40 @  0.000000000000000E+00              /* K =  1: 40 */
(PID.TID 0000.0001)     ;
(PID.TID 0000.0001) diffKrBL79surf = /* Surface diffusion for Bryan and Lewis 79 ( m^2/s ) */
(PID.TID 0000.0001)                 0.000000000000000E+00
(PID.TID 0000.0001)     ;
(PID.TID 0000.0001) diffKrBL79deep = /* Deep diffusion for Bryan and Lewis 1979 ( m^2/s ) */
(PID.TID 0000.0001)                 0.000000000000000E+00
(PID.TID 0000.0001)     ;
(PID.TID 0000.0001) diffKrBL79scl = /* Depth scale for Bryan and Lewis 1979 ( m ) */
(PID.TID 0000.0001)                 2.000000000000000E+02
(PID.TID 0000.0001)     ;
(PID.TID 0000.0001) diffKrBL79Ho = /* Turning depth for Bryan and Lewis 1979 ( m ) */
(PID.TID 0000.0001)                -2.000000000000000E+03
(PID.TID 0000.0001)     ;
(PID.TID 0000.0001) ivdc_kappa = /* Implicit Vertical Diffusivity for Convection (Pa^2/s) */
(PID.TID 0000.0001)                 0.000000000000000E+00
(PID.TID 0000.0001)     ;
(PID.TID 0000.0001) hMixCriteria=  /* Criteria for mixed-layer diagnostic */
(PID.TID 0000.0001)                -8.000000000000000E-01
(PID.TID 0000.0001)     ;
(PID.TID 0000.0001) dRhoSmall =  /* Parameter for mixed-layer diagnostic */
(PID.TID 0000.0001)                 1.000000000000000E-06
(PID.TID 0000.0001)     ;
(PID.TID 0000.0001) hMixSmooth=  /* Smoothing parameter for mixed-layer diagnostic */
(PID.TID 0000.0001)                 0.000000000000000E+00
(PID.TID 0000.0001)     ;
(PID.TID 0000.0001) eosType =  /* Type of Equation of State */
(PID.TID 0000.0001)               'IDEALG'
(PID.TID 0000.0001)     ;
(PID.TID 0000.0001) celsius2K = /* 0 degree Celsius converted to Kelvin ( K ) */
(PID.TID 0000.0001)                 2.731500000000000E+02
(PID.TID 0000.0001)     ;
(PID.TID 0000.0001) atm_Rd =    /* gas constant for dry air ( J/kg/K ) */
(PID.TID 0000.0001)                 2.870400000000000E+02
(PID.TID 0000.0001)     ;
(PID.TID 0000.0001) atm_Cp =    /* specific heat (Cp) of dry air ( J/kg/K ) */
(PID.TID 0000.0001)                 1.004640000000000E+03
(PID.TID 0000.0001)     ;
(PID.TID 0000.0001) atm_kappa = /* kappa (=Rd/Cp ) of dry air */
(PID.TID 0000.0001)                 2.857142857142857E-01
(PID.TID 0000.0001)     ;
(PID.TID 0000.0001) atm_Rq =  /* water vap. specific vol. anomaly relative to dry air */
(PID.TID 0000.0001)                 6.078000000000000E-01
(PID.TID 0000.0001)     ;
(PID.TID 0000.0001) atm_Po =    /* standard reference pressure ( Pa ) */
(PID.TID 0000.0001)                 1.000000000000000E+05
(PID.TID 0000.0001)     ;
(PID.TID 0000.0001) thetaConst= /* constant reference for potential temperature ( K ) */
(PID.TID 0000.0001)                 2.877000000000000E+02
(PID.TID 0000.0001)     ;
(PID.TID 0000.0001) integr_GeoPot =  /* select how the geopotential is integrated */
(PID.TID 0000.0001)                       2
(PID.TID 0000.0001)     ;
(PID.TID 0000.0001) selectFindRoSurf=  /* select how Surf.Ref. pressure is defined */
(PID.TID 0000.0001)                       1
(PID.TID 0000.0001)     ;
(PID.TID 0000.0001) rhoConst  = /* Reference density (Boussinesq)  ( kg/m^3 ) */
(PID.TID 0000.0001)                 9.998000000000000E+02
(PID.TID 0000.0001)     ;
(PID.TID 0000.0001) rhoFacC = /* normalized Reference density @ cell-Center (-) */
(PID.TID 0000.0001)    40 @  1.000000000000000E+00              /* K =  1: 40 */
(PID.TID 0000.0001)     ;
(PID.TID 0000.0001) rhoFacF = /* normalized Reference density @ W-Interface (-) */
(PID.TID 0000.0001)    41 @  1.000000000000000E+00              /* K =  1: 41 */
(PID.TID 0000.0001)     ;
(PID.TID 0000.0001) rhoConstFresh = /* Fresh-water reference density ( kg/m^3 ) */
(PID.TID 0000.0001)                 9.998000000000000E+02
(PID.TID 0000.0001)     ;
(PID.TID 0000.0001) gravity =   /* Gravitational acceleration ( m/s^2 ) */
(PID.TID 0000.0001)                 9.800000000000001E+00
(PID.TID 0000.0001)     ;
(PID.TID 0000.0001) gBaro =   /* Barotropic gravity ( m/s^2 ) */
(PID.TID 0000.0001)                 9.800000000000001E+00
(PID.TID 0000.0001)     ;
(PID.TID 0000.0001) gravFacC = /* gravity factor (vs surf.) @ cell-Center (-) */
(PID.TID 0000.0001)    40 @  1.000000000000000E+00              /* K =  1: 40 */
(PID.TID 0000.0001)     ;
(PID.TID 0000.0001) gravFacF = /* gravity factor (vs surf.) @ W-Interface (-) */
(PID.TID 0000.0001)    41 @  1.000000000000000E+00              /* K =  1: 41 */
(PID.TID 0000.0001)     ;
(PID.TID 0000.0001) rotationPeriod =   /* Rotation Period ( s ) */
(PID.TID 0000.0001)                 8.616400000000000E+04
(PID.TID 0000.0001)     ;
(PID.TID 0000.0001) omega =   /* Angular velocity ( rad/s ) */
(PID.TID 0000.0001)                 7.292123516990375E-05
(PID.TID 0000.0001)     ;
(PID.TID 0000.0001) f0 =   /* Reference coriolis parameter ( 1/s ) */
(PID.TID 0000.0001)                 1.000000000000000E-04
(PID.TID 0000.0001)     ;
(PID.TID 0000.0001) beta =   /* Beta ( 1/(m.s) ) */
(PID.TID 0000.0001)                 9.999999999999999E-12
(PID.TID 0000.0001)     ;
(PID.TID 0000.0001) fPrime =   /* Second coriolis parameter ( 1/s ) */
(PID.TID 0000.0001)                 0.000000000000000E+00
(PID.TID 0000.0001)     ;
(PID.TID 0000.0001) rigidLid =   /* Rigid lid on/off flag */
(PID.TID 0000.0001)                   F
(PID.TID 0000.0001)     ;
(PID.TID 0000.0001) implicitFreeSurface =   /* Implicit free surface on/off flag */
(PID.TID 0000.0001)                   T
(PID.TID 0000.0001)     ;
(PID.TID 0000.0001) freeSurfFac =   /* Implicit free surface factor */
(PID.TID 0000.0001)                 1.000000000000000E+00
(PID.TID 0000.0001)     ;
(PID.TID 0000.0001) implicSurfPress =  /* Surface Pressure implicit factor (0-1)*/
(PID.TID 0000.0001)                 1.000000000000000E+00
(PID.TID 0000.0001)     ;
(PID.TID 0000.0001) implicDiv2DFlow =  /* Barot. Flow Div. implicit factor (0-1)*/
(PID.TID 0000.0001)                 1.000000000000000E+00
(PID.TID 0000.0001)     ;
(PID.TID 0000.0001) uniformLin_PhiSurf = /* use uniform Bo_surf on/off flag*/
(PID.TID 0000.0001)                   F
(PID.TID 0000.0001)     ;
(PID.TID 0000.0001) uniformFreeSurfLev = /* free-surface level-index is uniform */
(PID.TID 0000.0001)                   F
(PID.TID 0000.0001)     ;
(PID.TID 0000.0001) hFacMin =   /* minimum partial cell factor (hFac) */
(PID.TID 0000.0001)                 1.000000000000000E+00
(PID.TID 0000.0001)     ;
(PID.TID 0000.0001) hFacMinDr = /* minimum partial cell thickness (Pa) */
(PID.TID 0000.0001)                 0.000000000000000E+00
(PID.TID 0000.0001)     ;
(PID.TID 0000.0001) exactConserv =  /* Exact Volume Conservation on/off flag*/
(PID.TID 0000.0001)                   T
(PID.TID 0000.0001)     ;
(PID.TID 0000.0001) linFSConserveTr = /* Tracer correction for Lin Free Surface on/off flag*/
(PID.TID 0000.0001)                   F
(PID.TID 0000.0001)     ;
(PID.TID 0000.0001) nonlinFreeSurf = /* Non-linear Free Surf. options (-1,0,1,2,3)*/
(PID.TID 0000.0001)                       4
(PID.TID 0000.0001)      -1,0= Off ; 1,2,3= On, 2=+rescale gU,gV, 3=+update cg2d solv.
(PID.TID 0000.0001)     ;
(PID.TID 0000.0001) hFacInf =   /* lower threshold for hFac (nonlinFreeSurf only)*/
(PID.TID 0000.0001)                 2.000000000000000E-01
(PID.TID 0000.0001)     ;
(PID.TID 0000.0001) hFacSup =   /* upper threshold for hFac (nonlinFreeSurf only)*/
(PID.TID 0000.0001)                 2.000000000000000E+00
(PID.TID 0000.0001)     ;
(PID.TID 0000.0001) select_rStar = /* r* Vertical coord. options (=0 r coord.; >0 uses r*)*/
(PID.TID 0000.0001)                       2
(PID.TID 0000.0001)     ;
(PID.TID 0000.0001) useRealFreshWaterFlux = /* Real Fresh Water Flux on/off flag*/
(PID.TID 0000.0001)                   F
(PID.TID 0000.0001)     ;
(PID.TID 0000.0001) temp_EvPrRn = /* Temp. of Evap/Prec/R (UNSET=use local T)(oC)*/
(PID.TID 0000.0001)                 1.234567000000000E+05
(PID.TID 0000.0001)     ;
(PID.TID 0000.0001) salt_EvPrRn = /* Salin. of Evap/Prec/R (UNSET=use local S)(psu)*/
(PID.TID 0000.0001)                 0.000000000000000E+00
(PID.TID 0000.0001)     ;
(PID.TID 0000.0001) selectAddFluid = /* option for mass source/sink of fluid (=0: off) */
(PID.TID 0000.0001)                       0
(PID.TID 0000.0001)     ;
(PID.TID 0000.0001) temp_addMass = /* Temp. of addMass array (UNSET=use local T)(oC)*/
(PID.TID 0000.0001)                 1.234567000000000E+05
(PID.TID 0000.0001)     ;
(PID.TID 0000.0001) salt_addMass = /* Salin. of addMass array (UNSET=use local S)(psu)*/
(PID.TID 0000.0001)                 0.000000000000000E+00
(PID.TID 0000.0001)     ;
(PID.TID 0000.0001) convertFW2Salt = /* convert F.W. Flux to Salt Flux (-1=use local S)(psu)*/
(PID.TID 0000.0001)                 3.500000000000000E+01
(PID.TID 0000.0001)     ;
(PID.TID 0000.0001) use3Dsolver = /* use 3-D pressure solver on/off flag */
(PID.TID 0000.0001)                   F
(PID.TID 0000.0001)     ;
(PID.TID 0000.0001) nonHydrostatic =  /* Non-Hydrostatic on/off flag */
(PID.TID 0000.0001)                   F
(PID.TID 0000.0001)     ;
(PID.TID 0000.0001) nh_Am2 = /* Non-Hydrostatic terms scaling factor */
(PID.TID 0000.0001)                 1.000000000000000E+00
(PID.TID 0000.0001)     ;
(PID.TID 0000.0001) implicitNHPress = /* Non-Hyd Pressure implicit factor (0-1)*/
(PID.TID 0000.0001)                 1.000000000000000E+00
(PID.TID 0000.0001)     ;
(PID.TID 0000.0001) selectNHfreeSurf = /* Non-Hyd (free-)Surface option */
(PID.TID 0000.0001)                       0
(PID.TID 0000.0001)     ;
(PID.TID 0000.0001) quasiHydrostatic = /* Quasi-Hydrostatic on/off flag */
(PID.TID 0000.0001)                   F
(PID.TID 0000.0001)     ;
(PID.TID 0000.0001) calc_wVelocity = /* vertical velocity calculation on/off flag */
(PID.TID 0000.0001)                   T
(PID.TID 0000.0001)     ;
(PID.TID 0000.0001) momStepping =  /* Momentum equation on/off flag */
(PID.TID 0000.0001)                   T
(PID.TID 0000.0001)     ;
(PID.TID 0000.0001) vectorInvariantMomentum= /* Vector-Invariant Momentum on/off */
(PID.TID 0000.0001)                   T
(PID.TID 0000.0001)     ;
(PID.TID 0000.0001) momAdvection =  /* Momentum advection on/off flag */
(PID.TID 0000.0001)                   T
(PID.TID 0000.0001)     ;
(PID.TID 0000.0001) momViscosity =  /* Momentum viscosity on/off flag */
(PID.TID 0000.0001)                   T
(PID.TID 0000.0001)     ;
(PID.TID 0000.0001) momImplVertAdv= /* Momentum implicit vert. advection on/off*/
(PID.TID 0000.0001)                   F
(PID.TID 0000.0001)     ;
(PID.TID 0000.0001) implicitViscosity = /* Implicit viscosity on/off flag */
(PID.TID 0000.0001)                   F
(PID.TID 0000.0001)     ;
(PID.TID 0000.0001) selectImplicitDrag= /* Implicit bot Drag options (0,1,2)*/
(PID.TID 0000.0001)                       0
(PID.TID 0000.0001)     0= Expl. ; 1= Impl. on provis. Vel ; 2= Fully Impl (with surf.P)
(PID.TID 0000.0001)     ;
(PID.TID 0000.0001) metricTerms =  /* metric-Terms on/off flag */
(PID.TID 0000.0001)                   F
(PID.TID 0000.0001)     ;
(PID.TID 0000.0001) useNHMTerms = /* Non-Hydrostatic Metric-Terms on/off */
(PID.TID 0000.0001)                   F
(PID.TID 0000.0001)     ;
(PID.TID 0000.0001) selectCoriMap = /* Coriolis Map options (0,1,2,3)*/
(PID.TID 0000.0001)                       2
(PID.TID 0000.0001)     0= f-Plane ; 1= Beta-Plane ; 2= Spherical ; 3= read from file
(PID.TID 0000.0001)     ;
(PID.TID 0000.0001) use3dCoriolis = /* 3-D Coriolis on/off flag */
(PID.TID 0000.0001)                   F
(PID.TID 0000.0001)     ;
(PID.TID 0000.0001) useCoriolis =  /* Coriolis on/off flag */
(PID.TID 0000.0001)                   T
(PID.TID 0000.0001)     ;
(PID.TID 0000.0001) useCDscheme =  /* CD scheme on/off flag */
(PID.TID 0000.0001)                   F
(PID.TID 0000.0001)     ;
(PID.TID 0000.0001) useEnergyConservingCoriolis= /* Flx-Form Coriolis scheme flag */
(PID.TID 0000.0001)                   F
(PID.TID 0000.0001)     ;
(PID.TID 0000.0001) useJamartWetPoints= /* Coriolis WetPoints method flag */
(PID.TID 0000.0001)                   F
(PID.TID 0000.0001)     ;
(PID.TID 0000.0001) useJamartMomAdv= /* V.I Non-linear terms Jamart flag */
(PID.TID 0000.0001)                   F
(PID.TID 0000.0001)     ;
(PID.TID 0000.0001) useAbsVorticity= /* V.I Works with f+zeta in Coriolis */
(PID.TID 0000.0001)                   T
(PID.TID 0000.0001)     ;
(PID.TID 0000.0001) selectVortScheme= /* V.I Scheme selector for Vorticity-Term */
(PID.TID 0000.0001)                       3
(PID.TID 0000.0001)    = 0 : enstrophy (Shallow-Water Eq.) conserving scheme by Sadourny, JAS 75
(PID.TID 0000.0001)    = 1 : same as 0 with modified hFac
(PID.TID 0000.0001)    = 2 : energy conserving scheme (used by Sadourny in JAS 75 paper)
(PID.TID 0000.0001)    = 3 : energy (general) and enstrophy (2D, nonDiv.) conserving scheme
(PID.TID 0000.0001)          from Sadourny (Burridge & Haseler, ECMWF Rep.4, 1977)
(PID.TID 0000.0001)     ;
(PID.TID 0000.0001) upwindVorticity= /* V.I Upwind bias vorticity flag */
(PID.TID 0000.0001)                   F
(PID.TID 0000.0001)     ;
(PID.TID 0000.0001) highOrderVorticity= /* V.I High order vort. advect. flag */
(PID.TID 0000.0001)                   F
(PID.TID 0000.0001)     ;
(PID.TID 0000.0001) upwindShear= /* V.I Upwind vertical Shear advection flag */
(PID.TID 0000.0001)                   F
(PID.TID 0000.0001)     ;
(PID.TID 0000.0001) selectKEscheme= /* V.I Kinetic Energy scheme selector */
(PID.TID 0000.0001)                       3
(PID.TID 0000.0001)     ;
(PID.TID 0000.0001) momForcing =  /* Momentum forcing on/off flag */
(PID.TID 0000.0001)                   T
(PID.TID 0000.0001)     ;
(PID.TID 0000.0001) momTidalForcing = /* Momentum Tidal forcing on/off flag */
(PID.TID 0000.0001)                   T
(PID.TID 0000.0001)     ;
(PID.TID 0000.0001) momPressureForcing =  /* Momentum pressure term on/off flag */
(PID.TID 0000.0001)                   T
(PID.TID 0000.0001)     ;
(PID.TID 0000.0001) implicitIntGravWave= /* Implicit Internal Gravity Wave flag */
(PID.TID 0000.0001)                   F
(PID.TID 0000.0001)     ;
(PID.TID 0000.0001) staggerTimeStep =    /* Stagger time stepping on/off flag */
(PID.TID 0000.0001)                   T
(PID.TID 0000.0001)     ;
(PID.TID 0000.0001) doResetHFactors = /* reset thickness factors @ each time-step */
(PID.TID 0000.0001)                   F
(PID.TID 0000.0001)     ;
(PID.TID 0000.0001) multiDimAdvection =  /* enable/disable Multi-Dim Advection */
(PID.TID 0000.0001)                   T
(PID.TID 0000.0001)     ;
(PID.TID 0000.0001) useMultiDimAdvec =   /* Multi-Dim Advection is/is-not used */
(PID.TID 0000.0001)                   T
(PID.TID 0000.0001)     ;
(PID.TID 0000.0001) implicitDiffusion = /* Implicit Diffusion on/off flag */
(PID.TID 0000.0001)                   F
(PID.TID 0000.0001)     ;
(PID.TID 0000.0001) tempStepping =  /* Temperature equation on/off flag */
(PID.TID 0000.0001)                   T
(PID.TID 0000.0001)     ;
(PID.TID 0000.0001) tempAdvection = /* Temperature advection on/off flag */
(PID.TID 0000.0001)                   T
(PID.TID 0000.0001)     ;
(PID.TID 0000.0001) tempImplVertAdv = /* Temp. implicit vert. advection on/off */
(PID.TID 0000.0001)                   F
(PID.TID 0000.0001)     ;
(PID.TID 0000.0001) tempForcing  =  /* Temperature forcing on/off flag */
(PID.TID 0000.0001)                   T
(PID.TID 0000.0001)     ;
(PID.TID 0000.0001) addFrictionHeating= /* account for frictional heating */
(PID.TID 0000.0001)                   T
(PID.TID 0000.0001)     ;
(PID.TID 0000.0001) doThetaClimRelax = /* apply SST relaxation on/off flag */
(PID.TID 0000.0001)                   F
(PID.TID 0000.0001)     ;
(PID.TID 0000.0001) tempIsActiveTr = /* Temp. is a dynamically Active Tracer */
(PID.TID 0000.0001)                   T
(PID.TID 0000.0001)     ;
(PID.TID 0000.0001) saltStepping =  /* Salinity equation on/off flag */
(PID.TID 0000.0001)                   T
(PID.TID 0000.0001)     ;
(PID.TID 0000.0001) saltAdvection = /* Salinity advection on/off flag */
(PID.TID 0000.0001)                   T
(PID.TID 0000.0001)     ;
(PID.TID 0000.0001) saltImplVertAdv = /* Sali. implicit vert. advection on/off */
(PID.TID 0000.0001)                   F
(PID.TID 0000.0001)     ;
(PID.TID 0000.0001) saltForcing  =  /* Salinity forcing on/off flag */
(PID.TID 0000.0001)                   T
(PID.TID 0000.0001)     ;
(PID.TID 0000.0001) doSaltClimRelax = /* apply SSS relaxation on/off flag */
(PID.TID 0000.0001)                   F
(PID.TID 0000.0001)     ;
(PID.TID 0000.0001) saltIsActiveTr = /* Salt  is a dynamically Active Tracer */
(PID.TID 0000.0001)                   T
(PID.TID 0000.0001)     ;
(PID.TID 0000.0001)  readBinaryPrec = /* Precision used for reading binary files */
(PID.TID 0000.0001)                      64
(PID.TID 0000.0001)     ;
(PID.TID 0000.0001) writeBinaryPrec = /* Precision used for writing binary files */
(PID.TID 0000.0001)                      64
(PID.TID 0000.0001)     ;
(PID.TID 0000.0001)  rwSuffixType =   /* select format of mds file suffix */
(PID.TID 0000.0001)                       0
(PID.TID 0000.0001)    = 0 : myIter (I10.10) ;   = 1 : 100*myTime (100th sec) ;
(PID.TID 0000.0001)    = 2 : myTime (seconds);   = 3 : myTime/360 (10th of hr);
(PID.TID 0000.0001)    = 4 : myTime/3600 (hours)
(PID.TID 0000.0001)     ;
(PID.TID 0000.0001)  globalFiles = /* write "global" (=not per tile) files */
(PID.TID 0000.0001)                   F
(PID.TID 0000.0001)     ;
(PID.TID 0000.0001)  useSingleCpuIO = /* only master MPI process does I/O */
(PID.TID 0000.0001)                   T
(PID.TID 0000.0001)     ;
(PID.TID 0000.0001)  useSingleCpuInput = /* only master process reads input */
(PID.TID 0000.0001)                   T
(PID.TID 0000.0001)     ;
(PID.TID 0000.0001) /* debLev[*]  : level of debug & auxiliary message printing */
(PID.TID 0000.0001) debLevZero =  0 ; /* level of disabled aux. msg printing */
(PID.TID 0000.0001)    debLevA =  1 ; /* level of minimum  aux. msg printing */
(PID.TID 0000.0001)    debLevB =  2 ; /* level of low aux. print (report read-file opening)*/
(PID.TID 0000.0001)    debLevC =  3 ; /* level of moderate debug prt (most pkgs debug msg) */
(PID.TID 0000.0001)    debLevD =  4 ; /* level of enhanced debug prt (add DEBUG_STATS prt) */
(PID.TID 0000.0001)    debLevE =  5 ; /* level of extensive debug printing */
(PID.TID 0000.0001) debugLevel =  /* select debug printing level */
(PID.TID 0000.0001)                       2
(PID.TID 0000.0001)     ;
(PID.TID 0000.0001)  plotLevel =  /* select PLOT_FIELD printing level */
(PID.TID 0000.0001)                       2
(PID.TID 0000.0001)     ;
(PID.TID 0000.0001) //
(PID.TID 0000.0001) // Elliptic solver(s) paramters ( PARM02 in namelist )
(PID.TID 0000.0001) //
(PID.TID 0000.0001) cg2dMaxIters =   /* Upper limit on 2d con. grad iterations  */
(PID.TID 0000.0001)                     200
(PID.TID 0000.0001)     ;
(PID.TID 0000.0001) cg2dChkResFreq =   /* 2d con. grad convergence test frequency */
(PID.TID 0000.0001)                       1
(PID.TID 0000.0001)     ;
(PID.TID 0000.0001) cg2dUseMinResSol= /* use cg2d last-iter(=0) / min-resid.(=1) solution */
(PID.TID 0000.0001)                       0
(PID.TID 0000.0001)     ;
(PID.TID 0000.0001) cg2dTargetResidual =   /* 2d con. grad target residual  */
(PID.TID 0000.0001)                 1.000000000000000E-07
(PID.TID 0000.0001)     ;
(PID.TID 0000.0001) cg2dTargetResWunit =   /* CG2d target residual [W units] */
(PID.TID 0000.0001)                 1.000000000000000E-17
(PID.TID 0000.0001)     ;
(PID.TID 0000.0001) cg2dPreCondFreq =   /* Freq. for updating cg2d preconditioner */
(PID.TID 0000.0001)                       1
(PID.TID 0000.0001)     ;
(PID.TID 0000.0001) useSRCGSolver =  /* use single reduction CG solver(s) */
(PID.TID 0000.0001)                   F
(PID.TID 0000.0001)     ;
(PID.TID 0000.0001) printResidualFreq = /* Freq. for printing CG residual */
(PID.TID 0000.0001)                       0
(PID.TID 0000.0001)     ;
(PID.TID 0000.0001) //
(PID.TID 0000.0001) // Time stepping paramters ( PARM03 in namelist )
(PID.TID 0000.0001) //
(PID.TID 0000.0001) deltaTMom =   /* Momentum equation timestep ( s ) */
(PID.TID 0000.0001)                 3.600000000000000E+01
(PID.TID 0000.0001)     ;
(PID.TID 0000.0001) deltaTFreeSurf = /* FreeSurface equation timestep ( s ) */
(PID.TID 0000.0001)                 1.800000000000000E+02
(PID.TID 0000.0001)     ;
(PID.TID 0000.0001) dTtracerLev =  /* Tracer equation timestep ( s ) */
(PID.TID 0000.0001)    40 @  1.800000000000000E+02              /* K =  1: 40 */
(PID.TID 0000.0001)     ;
(PID.TID 0000.0001) deltaTClock  =   /* Model clock timestep ( s ) */
(PID.TID 0000.0001)                 1.800000000000000E+02
(PID.TID 0000.0001)     ;
(PID.TID 0000.0001) cAdjFreq =   /* Convective adjustment interval ( s ) */
(PID.TID 0000.0001)                 0.000000000000000E+00
(PID.TID 0000.0001)     ;
(PID.TID 0000.0001) momForcingOutAB = /* =1: take Momentum Forcing out of Adams-Bash. stepping */
(PID.TID 0000.0001)                       1
(PID.TID 0000.0001)     ;
(PID.TID 0000.0001) tracForcingOutAB = /* =1: take T,S,pTr Forcing out of Adams-Bash. stepping */
(PID.TID 0000.0001)                       1
(PID.TID 0000.0001)     ;
(PID.TID 0000.0001) momDissip_In_AB = /* put Dissipation Tendency in Adams-Bash. stepping */
(PID.TID 0000.0001)                   T
(PID.TID 0000.0001)     ;
(PID.TID 0000.0001) doAB_onGtGs = /* apply AB on Tendencies (rather than on T,S)*/
(PID.TID 0000.0001)                   T
(PID.TID 0000.0001)     ;
(PID.TID 0000.0001) abEps =   /* Adams-Bashforth-2 stabilizing weight */
(PID.TID 0000.0001)                 1.000000000000000E-01
(PID.TID 0000.0001)     ;
(PID.TID 0000.0001) applyExchUV_early = /* Apply EXCH to U,V earlier in time-step */
(PID.TID 0000.0001)                   F
(PID.TID 0000.0001)     ;
(PID.TID 0000.0001) pickupStrictlyMatch= /* stop if pickup do not strictly match */
(PID.TID 0000.0001)                   T
(PID.TID 0000.0001)     ;
(PID.TID 0000.0001) nIter0   =   /* Run starting timestep number */
(PID.TID 0000.0001)                 4320000
(PID.TID 0000.0001)     ;
(PID.TID 0000.0001) nTimeSteps = /* Number of timesteps */
(PID.TID 0000.0001)                      10
(PID.TID 0000.0001)     ;
(PID.TID 0000.0001) nEndIter =   /* Run ending timestep number */
(PID.TID 0000.0001)                 4320010
(PID.TID 0000.0001)     ;
(PID.TID 0000.0001) baseTime =   /* Model base time ( s ) */
(PID.TID 0000.0001)                 0.000000000000000E+00
(PID.TID 0000.0001)     ;
(PID.TID 0000.0001) startTime =  /* Run start time ( s ) */
(PID.TID 0000.0001)                 7.776000000000000E+08
(PID.TID 0000.0001)     ;
(PID.TID 0000.0001) endTime  =   /* Integration ending time ( s ) */
(PID.TID 0000.0001)                 7.776018000000000E+08
(PID.TID 0000.0001)     ;
(PID.TID 0000.0001) pChkPtFreq = /* Permanent restart/pickup file interval ( s ) */
(PID.TID 0000.0001)                 2.592000000000000E+06
(PID.TID 0000.0001)     ;
(PID.TID 0000.0001) chkPtFreq  = /* Rolling restart/pickup file interval ( s ) */
(PID.TID 0000.0001)                 8.640000000000000E+04
(PID.TID 0000.0001)     ;
(PID.TID 0000.0001) pickup_write_mdsio =   /* Model IO flag. */
(PID.TID 0000.0001)                   T
(PID.TID 0000.0001)     ;
(PID.TID 0000.0001) pickup_read_mdsio =   /* Model IO flag. */
(PID.TID 0000.0001)                   T
(PID.TID 0000.0001)     ;
(PID.TID 0000.0001) writePickupAtEnd =   /* Model IO flag. */
(PID.TID 0000.0001)                   T
(PID.TID 0000.0001)     ;
(PID.TID 0000.0001) dumpFreq =   /* Model state write out interval ( s ). */
(PID.TID 0000.0001)                 2.592000000000000E+06
(PID.TID 0000.0001)     ;
(PID.TID 0000.0001) dumpInitAndLast= /* write out Initial & Last iter. model state */
(PID.TID 0000.0001)                   T
(PID.TID 0000.0001)     ;
(PID.TID 0000.0001) snapshot_mdsio =   /* Model IO flag. */
(PID.TID 0000.0001)                   T
(PID.TID 0000.0001)     ;
(PID.TID 0000.0001) monitorFreq =   /* Monitor output interval ( s ). */
(PID.TID 0000.0001)                 1.000000000000000E+00
(PID.TID 0000.0001)     ;
(PID.TID 0000.0001) monitorSelect = /* select group of variables to monitor */
(PID.TID 0000.0001)                       2
(PID.TID 0000.0001)     ;
(PID.TID 0000.0001) monitor_stdio =   /* Model IO flag. */
(PID.TID 0000.0001)                   T
(PID.TID 0000.0001)     ;
(PID.TID 0000.0001) externForcingPeriod =   /* forcing period (s) */
(PID.TID 0000.0001)                 0.000000000000000E+00
(PID.TID 0000.0001)     ;
(PID.TID 0000.0001) externForcingCycle =   /* period of the cyle (s). */
(PID.TID 0000.0001)                 0.000000000000000E+00
(PID.TID 0000.0001)     ;
(PID.TID 0000.0001) tauThetaClimRelax =   /* relaxation time scale (s) */
(PID.TID 0000.0001)                 0.000000000000000E+00
(PID.TID 0000.0001)     ;
(PID.TID 0000.0001) tauSaltClimRelax =   /* relaxation time scale (s) */
(PID.TID 0000.0001)                 0.000000000000000E+00
(PID.TID 0000.0001)     ;
(PID.TID 0000.0001) latBandClimRelax =   /* max. Lat. where relaxation */
(PID.TID 0000.0001)                 1.800000000000000E+02
(PID.TID 0000.0001)     ;
(PID.TID 0000.0001) //
(PID.TID 0000.0001) // Gridding paramters ( PARM04 in namelist )
(PID.TID 0000.0001) //
(PID.TID 0000.0001) usingCartesianGrid = /* Cartesian coordinates flag ( True/False ) */
(PID.TID 0000.0001)                   F
(PID.TID 0000.0001)     ;
(PID.TID 0000.0001) usingCylindricalGrid = /* Cylindrical coordinates flag ( True/False ) */
(PID.TID 0000.0001)                   F
(PID.TID 0000.0001)     ;
(PID.TID 0000.0001) usingSphericalPolarGrid = /* Spherical coordinates flag ( True/False ) */
(PID.TID 0000.0001)                   F
(PID.TID 0000.0001)     ;
(PID.TID 0000.0001) usingCurvilinearGrid = /* Curvilinear coordinates flag ( True/False ) */
(PID.TID 0000.0001)                   T
(PID.TID 0000.0001)     ;
(PID.TID 0000.0001) useMin4hFacEdges = /* set hFacW,S as minimum of adjacent hFacC factor */
(PID.TID 0000.0001)                   F
(PID.TID 0000.0001)     ;
(PID.TID 0000.0001) interViscAr_pCell = /* account for partial-cell in interior vert. viscosity */
(PID.TID 0000.0001)                   F
(PID.TID 0000.0001)     ;
(PID.TID 0000.0001) interDiffKr_pCell = /* account for partial-cell in interior vert. diffusion */
(PID.TID 0000.0001)                   F
(PID.TID 0000.0001)     ;
(PID.TID 0000.0001) pCellMix_select = /* option to enhance mixing near surface & bottom */
(PID.TID 0000.0001)                       0
(PID.TID 0000.0001)     ;
(PID.TID 0000.0001) selectSigmaCoord = /* Hybrid-Sigma Vert. Coordinate option */
(PID.TID 0000.0001)                       0
(PID.TID 0000.0001)     ;
(PID.TID 0000.0001) rSigmaBnd = /* r/sigma transition ( units of r == Pa ) */
(PID.TID 0000.0001)                 1.234567000000000E+05
(PID.TID 0000.0001)     ;
(PID.TID 0000.0001) rkSign =   /* index orientation relative to vertical coordinate */
(PID.TID 0000.0001)                -1.000000000000000E+00
(PID.TID 0000.0001)     ;
(PID.TID 0000.0001) gravitySign = /* gravity orientation relative to vertical coordinate */
(PID.TID 0000.0001)                 1.000000000000000E+00
(PID.TID 0000.0001)     ;
(PID.TID 0000.0001) seaLev_Z =  /* reference height of sea-level [m] */
(PID.TID 0000.0001)                 0.000000000000000E+00
(PID.TID 0000.0001)     ;
(PID.TID 0000.0001) top_Pres =  /* pressure at the top (r-axis origin) [Pa] */
(PID.TID 0000.0001)                 1.000000000000000E+00
(PID.TID 0000.0001)     ;
(PID.TID 0000.0001) mass2rUnit = /* convert mass per unit area [kg/m2] to r-units [Pa] */
(PID.TID 0000.0001)                 9.800000000000001E+00
(PID.TID 0000.0001)     ;
(PID.TID 0000.0001) rUnit2mass = /* convert r-units [Pa] to mass per unit area [kg/m2] */
(PID.TID 0000.0001)                 1.020408163265306E-01
(PID.TID 0000.0001)     ;
(PID.TID 0000.0001) drC =   /* C spacing ( units of r ) */
(PID.TID 0000.0001)                 1.000000000000000E+03,      /* K =  1 */
(PID.TID 0000.0001)                 2.500000000000000E+03,      /* K =  2 */
(PID.TID 0000.0001)     2 @  3.000000000000000E+03,             /* K =  3:  4 */
(PID.TID 0000.0001)                 3.500000000000000E+03,      /* K =  5 */
(PID.TID 0000.0001)                 4.500000000000000E+03,      /* K =  6 */
(PID.TID 0000.0001)    11 @  5.000000000000000E+03,             /* K =  7: 17 */
(PID.TID 0000.0001)                 4.500000000000000E+03,      /* K = 18 */
(PID.TID 0000.0001)                 4.000000000000000E+03,      /* K = 19 */
(PID.TID 0000.0001)                 3.750000000000000E+03,      /* K = 20 */
(PID.TID 0000.0001)                 3.250000000000000E+03,      /* K = 21 */
(PID.TID 0000.0001)                 2.750000000000000E+03,      /* K = 22 */
(PID.TID 0000.0001)                 2.250000000000000E+03,      /* K = 23 */
(PID.TID 0000.0001)                 1.750000000000000E+03,      /* K = 24 */
(PID.TID 0000.0001)                 1.350000000000000E+03,      /* K = 25 */
(PID.TID 0000.0001)                 1.000000000000000E+03,      /* K = 26 */
(PID.TID 0000.0001)                 7.250000000000000E+02,      /* K = 27 */
(PID.TID 0000.0001)                 5.750000000000000E+02,      /* K = 28 */
(PID.TID 0000.0001)                 4.250000000000000E+02,      /* K = 29 */
(PID.TID 0000.0001)                 3.000000000000000E+02,      /* K = 30 */
(PID.TID 0000.0001)                 2.250000000000000E+02,      /* K = 31 */
(PID.TID 0000.0001)                 1.750000000000000E+02,      /* K = 32 */
(PID.TID 0000.0001)                 1.375000000000000E+02,      /* K = 33 */
(PID.TID 0000.0001)                 1.125000000000000E+02,      /* K = 34 */
(PID.TID 0000.0001)                 8.750000000000000E+01,      /* K = 35 */
(PID.TID 0000.0001)                 6.250000000000000E+01,      /* K = 36 */
(PID.TID 0000.0001)                 3.750000000000000E+01,      /* K = 37 */
(PID.TID 0000.0001)                 2.000000000000000E+01,      /* K = 38 */
(PID.TID 0000.0001)                 1.050000000000000E+01,      /* K = 39 */
(PID.TID 0000.0001)                 4.500000000000000E+00,      /* K = 40 */
(PID.TID 0000.0001)                 1.500000000000000E+00       /* K = 41 */
(PID.TID 0000.0001)     ;
(PID.TID 0000.0001) drF =   /* W spacing ( units of r ) */
(PID.TID 0000.0001)                 2.000000000000000E+03,      /* K =  1 */
(PID.TID 0000.0001)     3 @  3.000000000000000E+03,             /* K =  2:  4 */
(PID.TID 0000.0001)                 4.000000000000000E+03,      /* K =  5 */
(PID.TID 0000.0001)    12 @  5.000000000000000E+03,             /* K =  6: 17 */
(PID.TID 0000.0001)     2 @  4.000000000000000E+03,             /* K = 18: 19 */
(PID.TID 0000.0001)                 3.500000000000000E+03,      /* K = 20 */
(PID.TID 0000.0001)                 3.000000000000000E+03,      /* K = 21 */
(PID.TID 0000.0001)                 2.500000000000000E+03,      /* K = 22 */
(PID.TID 0000.0001)                 2.000000000000000E+03,      /* K = 23 */
(PID.TID 0000.0001)                 1.500000000000000E+03,      /* K = 24 */
(PID.TID 0000.0001)                 1.200000000000000E+03,      /* K = 25 */
(PID.TID 0000.0001)                 8.000000000000000E+02,      /* K = 26 */
(PID.TID 0000.0001)                 6.500000000000000E+02,      /* K = 27 */
(PID.TID 0000.0001)                 5.000000000000000E+02,      /* K = 28 */
(PID.TID 0000.0001)                 3.500000000000000E+02,      /* K = 29 */
(PID.TID 0000.0001)                 2.500000000000000E+02,      /* K = 30 */
(PID.TID 0000.0001)                 2.000000000000000E+02,      /* K = 31 */
(PID.TID 0000.0001)                 1.500000000000000E+02,      /* K = 32 */
(PID.TID 0000.0001)                 1.250000000000000E+02,      /* K = 33 */
(PID.TID 0000.0001)                 1.000000000000000E+02,      /* K = 34 */
(PID.TID 0000.0001)                 7.500000000000000E+01,      /* K = 35 */
(PID.TID 0000.0001)                 5.000000000000000E+01,      /* K = 36 */
(PID.TID 0000.0001)                 2.500000000000000E+01,      /* K = 37 */
(PID.TID 0000.0001)                 1.500000000000000E+01,      /* K = 38 */
(PID.TID 0000.0001)                 6.000000000000000E+00,      /* K = 39 */
(PID.TID 0000.0001)                 3.000000000000000E+00       /* K = 40 */
(PID.TID 0000.0001)     ;
(PID.TID 0000.0001) radius_fromHorizGrid = /* sphere Radius of input horiz. grid */
(PID.TID 0000.0001)                 6.370000000000000E+06
(PID.TID 0000.0001)     ;
(PID.TID 0000.0001) rSphere =  /* Radius ( ignored - cartesian, m - spherical ) */
(PID.TID 0000.0001)                 6.370000000000000E+06
(PID.TID 0000.0001)     ;
(PID.TID 0000.0001) deepAtmosphere = /* Deep/Shallow Atmosphere flag (True/False) */
(PID.TID 0000.0001)                   F
(PID.TID 0000.0001)     ;
(PID.TID 0000.0001) xC =  /* xC(:,1,:,1) : P-point X coord ( deg. or m if cartesian) */
(PID.TID 0000.0001)                -4.439521994760536E+01,      /* I =  1 */
(PID.TID 0000.0001)                -4.295641272275883E+01,      /* I =  2 */
(PID.TID 0000.0001)                -4.122055553388957E+01,      /* I =  3 */
(PID.TID 0000.0001)      . . .
(PID.TID 0000.0001)                 8.070819219728060E+01,      /* I = 46 */
(PID.TID 0000.0001)                 8.439652466417766E+01,      /* I = 47 */
(PID.TID 0000.0001)                 8.812739148696656E+01,      /* I = 48 */
(PID.TID 0000.0001)                 9.187260851303344E+01,      /* I = 49 */
(PID.TID 0000.0001)                 9.560347533582234E+01,      /* I = 50 */
(PID.TID 0000.0001)                 9.929180780271940E+01,      /* I = 51 */
(PID.TID 0000.0001)      . . .
(PID.TID 0000.0001)                 1.321863035748696E+02,      /* I = 94 */
(PID.TID 0000.0001)                 1.337919453120370E+02,      /* I = 95 */
(PID.TID 0000.0001)                 1.350000000000000E+02,      /* I = 96 */
(PID.TID 0000.0001)                 1.356047800523947E+02,      /* I = 97 */
(PID.TID 0000.0001)                 1.358367907661329E+02,      /* I = 98 */
(PID.TID 0000.0001)                 1.359720382181193E+02,      /* I = 99 */
(PID.TID 0000.0001)      . . .
(PID.TID 0000.0001)                -1.336511021209287E+02,      /* I =142 */
(PID.TID 0000.0001)                -1.336469399409420E+02,      /* I =143 */
(PID.TID 0000.0001)                -1.336449032499283E+02,      /* I =144 */
(PID.TID 0000.0001)                -1.336449032499283E+02,      /* I =145 */
(PID.TID 0000.0001)                -1.336469399409420E+02,      /* I =146 */
(PID.TID 0000.0001)                -1.336511021209287E+02,      /* I =147 */
(PID.TID 0000.0001)      . . .
(PID.TID 0000.0001)                 1.378136964251304E+02,      /* I =190 */
(PID.TID 0000.0001)                 1.362080546879630E+02,      /* I =191 */
(PID.TID 0000.0001)                 1.350000000000000E+02       /* I =192 */
(PID.TID 0000.0001)     ;
(PID.TID 0000.0001) yC =  /* yC(1,:,1,:) : P-point Y coord ( deg. or m if cartesian) */
(PID.TID 0000.0001)                -3.497677942598243E+01,      /* J =  1 */
(PID.TID 0000.0001)                -3.374005967394886E+01,      /* J =  2 */
(PID.TID 0000.0001)                -3.220655175667454E+01,      /* J =  3 */
(PID.TID 0000.0001)                -3.045756348838641E+01,      /* J =  4 */
(PID.TID 0000.0001)                -2.853728129852918E+01,      /* J =  5 */
(PID.TID 0000.0001)                -2.647426640173173E+01,      /* J =  6 */
(PID.TID 0000.0001)                -2.428936657094636E+01,      /* J =  7 */
(PID.TID 0000.0001)                -2.199915808312262E+01,      /* J =  8 */
(PID.TID 0000.0001)                -1.961768597440146E+01,      /* J =  9 */
(PID.TID 0000.0001)                -1.715743888281371E+01,      /* J = 10 */
(PID.TID 0000.0001)                -1.462993396899330E+01,      /* J = 11 */
(PID.TID 0000.0001)                -1.204608340464756E+01,      /* J = 12 */
(PID.TID 0000.0001)                -9.416429130284818E+00,      /* J = 13 */
(PID.TID 0000.0001)                -6.751293662992216E+00,      /* J = 14 */
(PID.TID 0000.0001)                -4.060875511835959E+00,      /* J = 15 */
(PID.TID 0000.0001)                -1.355307764409121E+00,      /* J = 16 */
(PID.TID 0000.0001)                 1.355307764409121E+00,      /* J = 17 */
(PID.TID 0000.0001)                 4.060875511835959E+00,      /* J = 18 */
(PID.TID 0000.0001)                 6.751293662992216E+00,      /* J = 19 */
(PID.TID 0000.0001)                 9.416429130284818E+00,      /* J = 20 */
(PID.TID 0000.0001)                 1.204608340464756E+01,      /* J = 21 */
(PID.TID 0000.0001)                 1.462993396899330E+01,      /* J = 22 */
(PID.TID 0000.0001)                 1.715743888281371E+01,      /* J = 23 */
(PID.TID 0000.0001)                 1.961768597440146E+01,      /* J = 24 */
(PID.TID 0000.0001)                 2.199915808312262E+01,      /* J = 25 */
(PID.TID 0000.0001)                 2.428936657094636E+01,      /* J = 26 */
(PID.TID 0000.0001)                 2.647426640173173E+01,      /* J = 27 */
(PID.TID 0000.0001)                 2.853728129852918E+01,      /* J = 28 */
(PID.TID 0000.0001)                 3.045756348838641E+01,      /* J = 29 */
(PID.TID 0000.0001)                 3.220655175667454E+01,      /* J = 30 */
(PID.TID 0000.0001)                 3.374005967394886E+01,      /* J = 31 */
(PID.TID 0000.0001)                 3.497677942598243E+01       /* J = 32 */
(PID.TID 0000.0001)     ;
(PID.TID 0000.0001) rcoord = /* P-point R coordinate (  units of r ) */
(PID.TID 0000.0001)                 9.900000000000000E+04,      /* K =  1 */
(PID.TID 0000.0001)                 9.650000000000000E+04,      /* K =  2 */
(PID.TID 0000.0001)                 9.350000000000000E+04,      /* K =  3 */
(PID.TID 0000.0001)                 9.050000000000000E+04,      /* K =  4 */
(PID.TID 0000.0001)                 8.700000000000000E+04,      /* K =  5 */
(PID.TID 0000.0001)                 8.250000000000000E+04,      /* K =  6 */
(PID.TID 0000.0001)                 7.750000000000000E+04,      /* K =  7 */
(PID.TID 0000.0001)                 7.250000000000000E+04,      /* K =  8 */
(PID.TID 0000.0001)                 6.750000000000000E+04,      /* K =  9 */
(PID.TID 0000.0001)                 6.250000000000000E+04,      /* K = 10 */
(PID.TID 0000.0001)                 5.750000000000000E+04,      /* K = 11 */
(PID.TID 0000.0001)                 5.250000000000000E+04,      /* K = 12 */
(PID.TID 0000.0001)                 4.750000000000000E+04,      /* K = 13 */
(PID.TID 0000.0001)                 4.250000000000000E+04,      /* K = 14 */
(PID.TID 0000.0001)                 3.750000000000000E+04,      /* K = 15 */
(PID.TID 0000.0001)                 3.250000000000000E+04,      /* K = 16 */
(PID.TID 0000.0001)                 2.750000000000000E+04,      /* K = 17 */
(PID.TID 0000.0001)                 2.300000000000000E+04,      /* K = 18 */
(PID.TID 0000.0001)                 1.900000000000000E+04,      /* K = 19 */
(PID.TID 0000.0001)                 1.525000000000000E+04,      /* K = 20 */
(PID.TID 0000.0001)                 1.200000000000000E+04,      /* K = 21 */
(PID.TID 0000.0001)                 9.250000000000000E+03,      /* K = 22 */
(PID.TID 0000.0001)                 7.000000000000000E+03,      /* K = 23 */
(PID.TID 0000.0001)                 5.250000000000000E+03,      /* K = 24 */
(PID.TID 0000.0001)                 3.900000000000000E+03,      /* K = 25 */
(PID.TID 0000.0001)                 2.900000000000000E+03,      /* K = 26 */
(PID.TID 0000.0001)                 2.175000000000000E+03,      /* K = 27 */
(PID.TID 0000.0001)                 1.600000000000000E+03,      /* K = 28 */
(PID.TID 0000.0001)                 1.175000000000000E+03,      /* K = 29 */
(PID.TID 0000.0001)                 8.750000000000000E+02,      /* K = 30 */
(PID.TID 0000.0001)                 6.500000000000000E+02,      /* K = 31 */
(PID.TID 0000.0001)                 4.750000000000000E+02,      /* K = 32 */
(PID.TID 0000.0001)                 3.375000000000000E+02,      /* K = 33 */
(PID.TID 0000.0001)                 2.250000000000000E+02,      /* K = 34 */
(PID.TID 0000.0001)                 1.375000000000000E+02,      /* K = 35 */
(PID.TID 0000.0001)                 7.500000000000000E+01,      /* K = 36 */
(PID.TID 0000.0001)                 3.750000000000000E+01,      /* K = 37 */
(PID.TID 0000.0001)                 1.750000000000000E+01,      /* K = 38 */
(PID.TID 0000.0001)                 7.000000000000000E+00,      /* K = 39 */
(PID.TID 0000.0001)                 2.500000000000000E+00       /* K = 40 */
(PID.TID 0000.0001)     ;
(PID.TID 0000.0001) rF =   /* W-Interf. R coordinate (  units of r ) */
(PID.TID 0000.0001)                 1.000000000000000E+05,      /* K =  1 */
(PID.TID 0000.0001)                 9.800000000000000E+04,      /* K =  2 */
(PID.TID 0000.0001)                 9.500000000000000E+04,      /* K =  3 */
(PID.TID 0000.0001)                 9.200000000000000E+04,      /* K =  4 */
(PID.TID 0000.0001)                 8.900000000000000E+04,      /* K =  5 */
(PID.TID 0000.0001)                 8.500000000000000E+04,      /* K =  6 */
(PID.TID 0000.0001)                 8.000000000000000E+04,      /* K =  7 */
(PID.TID 0000.0001)                 7.500000000000000E+04,      /* K =  8 */
(PID.TID 0000.0001)                 7.000000000000000E+04,      /* K =  9 */
(PID.TID 0000.0001)                 6.500000000000000E+04,      /* K = 10 */
(PID.TID 0000.0001)                 6.000000000000000E+04,      /* K = 11 */
(PID.TID 0000.0001)                 5.500000000000000E+04,      /* K = 12 */
(PID.TID 0000.0001)                 5.000000000000000E+04,      /* K = 13 */
(PID.TID 0000.0001)                 4.500000000000000E+04,      /* K = 14 */
(PID.TID 0000.0001)                 4.000000000000000E+04,      /* K = 15 */
(PID.TID 0000.0001)                 3.500000000000000E+04,      /* K = 16 */
(PID.TID 0000.0001)                 3.000000000000000E+04,      /* K = 17 */
(PID.TID 0000.0001)                 2.500000000000000E+04,      /* K = 18 */
(PID.TID 0000.0001)                 2.100000000000000E+04,      /* K = 19 */
(PID.TID 0000.0001)                 1.700000000000000E+04,      /* K = 20 */
(PID.TID 0000.0001)                 1.350000000000000E+04,      /* K = 21 */
(PID.TID 0000.0001)                 1.050000000000000E+04,      /* K = 22 */
(PID.TID 0000.0001)                 8.000000000000000E+03,      /* K = 23 */
(PID.TID 0000.0001)                 6.000000000000000E+03,      /* K = 24 */
(PID.TID 0000.0001)                 4.500000000000000E+03,      /* K = 25 */
(PID.TID 0000.0001)                 3.300000000000000E+03,      /* K = 26 */
(PID.TID 0000.0001)                 2.500000000000000E+03,      /* K = 27 */
(PID.TID 0000.0001)                 1.850000000000000E+03,      /* K = 28 */
(PID.TID 0000.0001)                 1.350000000000000E+03,      /* K = 29 */
(PID.TID 0000.0001)                 1.000000000000000E+03,      /* K = 30 */
(PID.TID 0000.0001)                 7.500000000000000E+02,      /* K = 31 */
(PID.TID 0000.0001)                 5.500000000000000E+02,      /* K = 32 */
(PID.TID 0000.0001)                 4.000000000000000E+02,      /* K = 33 */
(PID.TID 0000.0001)                 2.750000000000000E+02,      /* K = 34 */
(PID.TID 0000.0001)                 1.750000000000000E+02,      /* K = 35 */
(PID.TID 0000.0001)                 1.000000000000000E+02,      /* K = 36 */
(PID.TID 0000.0001)                 5.000000000000000E+01,      /* K = 37 */
(PID.TID 0000.0001)                 2.500000000000000E+01,      /* K = 38 */
(PID.TID 0000.0001)                 1.000000000000000E+01,      /* K = 39 */
(PID.TID 0000.0001)                 4.000000000000000E+00,      /* K = 40 */
(PID.TID 0000.0001)                 1.000000000000000E+00       /* K = 41 */
(PID.TID 0000.0001)     ;
(PID.TID 0000.0001) deepFacC = /* deep-model grid factor @ cell-Center (-) */
(PID.TID 0000.0001)    40 @  1.000000000000000E+00              /* K =  1: 40 */
(PID.TID 0000.0001)     ;
(PID.TID 0000.0001) deepFacF = /* deep-model grid factor @ W-Interface (-) */
(PID.TID 0000.0001)    41 @  1.000000000000000E+00              /* K =  1: 41 */
(PID.TID 0000.0001)     ;
(PID.TID 0000.0001) rVel2wUnit = /* convert units: rVel -> wSpeed (=1 if z-coord)*/
(PID.TID 0000.0001)                 8.426674285714283E-02,      /* K =  1 */
(PID.TID 0000.0001)                 8.559557506203275E-02,      /* K =  2 */
(PID.TID 0000.0001)                 8.776077061392046E-02,      /* K =  3 */
(PID.TID 0000.0001)                 9.007528147498217E-02,      /* K =  4 */
(PID.TID 0000.0001)                 9.255205461132530E-02,      /* K =  5 */
(PID.TID 0000.0001)                 9.607018108364271E-02,      /* K =  6 */
(PID.TID 0000.0001)                 1.008713396680383E-01,      /* K =  7 */
(PID.TID 0000.0001)                 1.062777361234676E-01,      /* K =  8 */
(PID.TID 0000.0001)                 1.124021390462192E-01,      /* K =  9 */
(PID.TID 0000.0001)                 1.193689768441394E-01,      /* K = 10 */
(PID.TID 0000.0001)                 1.273628742126328E-01,      /* K = 11 */
(PID.TID 0000.0001)                 1.366520702536746E-01,      /* K = 12 */
(PID.TID 0000.0001)                 1.476246845158498E-01,      /* K = 13 */
(PID.TID 0000.0001)                 1.607953342106594E-01,      /* K = 14 */
(PID.TID 0000.0001)                 1.768810639948190E-01,      /* K = 15 */
(PID.TID 0000.0001)                 1.970936154498842E-01,      /* K = 16 */
(PID.TID 0000.0001)                 2.233226811209851E-01,      /* K = 17 */
(PID.TID 0000.0001)                 2.586421124565947E-01,      /* K = 18 */
(PID.TID 0000.0001)                 3.033032331243234E-01,      /* K = 19 */
(PID.TID 0000.0001)                 3.735391492803156E-01,      /* K = 20 */
(PID.TID 0000.0001)                 4.703350547606367E-01,      /* K = 21 */
(PID.TID 0000.0001)                 6.045729275178781E-01,      /* K = 22 */
(PID.TID 0000.0001)                 7.930760770159382E-01,      /* K = 23 */
(PID.TID 0000.0001)                 1.056918597819370E+00,      /* K = 24 */
(PID.TID 0000.0001)                 1.418651245899735E+00,      /* K = 25 */
(PID.TID 0000.0001)                 1.944119240519203E+00,      /* K = 26 */
(PID.TID 0000.0001)                 2.598813307082239E+00,      /* K = 27 */
(PID.TID 0000.0001)                 3.539386590203069E+00,      /* K = 28 */
(PID.TID 0000.0001)                 4.884860020448975E+00,      /* K = 29 */
(PID.TID 0000.0001)                 6.656533000637335E+00,      /* K = 30 */
(PID.TID 0000.0001)                 9.046925320388642E+00,      /* K = 31 */
(PID.TID 0000.0001)                 1.263274655943143E+01,      /* K = 32 */
(PID.TID 0000.0001)                 1.789742823209333E+01,      /* K = 33 */
(PID.TID 0000.0001)                 2.685837532153081E+01,      /* K = 34 */
(PID.TID 0000.0001)                 4.381256879300799E+01,      /* K = 35 */
(PID.TID 0000.0001)                 7.874256674658912E+01,      /* K = 36 */
(PID.TID 0000.0001)                 1.530048858734788E+02,      /* K = 37 */
(PID.TID 0000.0001)                 2.926271491012598E+02,      /* K = 38 */
(PID.TID 0000.0001)                 6.691248698551441E+02,      /* K = 39 */
(PID.TID 0000.0001)                 1.581429121761658E+03,      /* K = 40 */
(PID.TID 0000.0001)                 4.725002738624015E+03       /* K = 41 */
(PID.TID 0000.0001)     ;
(PID.TID 0000.0001) wUnit2rVel = /* convert units: wSpeed -> rVel (=1 if z-coord)*/
(PID.TID 0000.0001)                 1.186707787786811E+01,      /* K =  1 */
(PID.TID 0000.0001)                 1.168284691440277E+01,      /* K =  2 */
(PID.TID 0000.0001)                 1.139461279800319E+01,      /* K =  3 */
(PID.TID 0000.0001)                 1.110182486943151E+01,      /* K =  4 */
(PID.TID 0000.0001)                 1.080473042116164E+01,      /* K =  5 */
(PID.TID 0000.0001)                 1.040905709472285E+01,      /* K =  6 */
(PID.TID 0000.0001)                 9.913618707662076E+00,      /* K =  7 */
(PID.TID 0000.0001)                 9.409308444792762E+00,      /* K =  8 */
(PID.TID 0000.0001)                 8.896627844322477E+00,      /* K =  9 */
(PID.TID 0000.0001)                 8.377386038130361E+00,      /* K = 10 */
(PID.TID 0000.0001)                 7.851581602425967E+00,      /* K = 11 */
(PID.TID 0000.0001)                 7.317854739731686E+00,      /* K = 12 */
(PID.TID 0000.0001)                 6.773934882771143E+00,      /* K = 13 */
(PID.TID 0000.0001)                 6.219085926273776E+00,      /* K = 14 */
(PID.TID 0000.0001)                 5.653516421799060E+00,      /* K = 15 */
(PID.TID 0000.0001)                 5.073731067936467E+00,      /* K = 16 */
(PID.TID 0000.0001)                 4.477825516783268E+00,      /* K = 17 */
(PID.TID 0000.0001)                 3.866346398511649E+00,      /* K = 18 */
(PID.TID 0000.0001)                 3.297030465844398E+00,      /* K = 19 */
(PID.TID 0000.0001)                 2.677095565288576E+00,      /* K = 20 */
(PID.TID 0000.0001)                 2.126143883765842E+00,      /* K = 21 */
(PID.TID 0000.0001)                 1.654060171211402E+00,      /* K = 22 */
(PID.TID 0000.0001)                 1.260913081330914E+00,      /* K = 23 */
(PID.TID 0000.0001)                 9.461466588469494E-01,      /* K = 24 */
(PID.TID 0000.0001)                 7.048948801830303E-01,      /* K = 25 */
(PID.TID 0000.0001)                 5.143717417934388E-01,      /* K = 26 */
(PID.TID 0000.0001)                 3.847910110644801E-01,      /* K = 27 */
(PID.TID 0000.0001)                 2.825348332301350E-01,      /* K = 28 */
(PID.TID 0000.0001)                 2.047141567647395E-01,      /* K = 29 */
(PID.TID 0000.0001)                 1.502283545960418E-01,      /* K = 30 */
(PID.TID 0000.0001)                 1.105347910572828E-01,      /* K = 31 */
(PID.TID 0000.0001)                 7.915934949659971E-02,      /* K = 32 */
(PID.TID 0000.0001)                 5.587394943184177E-02,      /* K = 33 */
(PID.TID 0000.0001)                 3.723233397510674E-02,      /* K = 34 */
(PID.TID 0000.0001)                 2.282450053829277E-02,      /* K = 35 */
(PID.TID 0000.0001)                 1.269961142133225E-02,      /* K = 36 */
(PID.TID 0000.0001)                 6.535739001347378E-03,      /* K = 37 */
(PID.TID 0000.0001)                 3.417317918283662E-03,      /* K = 38 */
(PID.TID 0000.0001)                 1.494489362226942E-03,      /* K = 39 */
(PID.TID 0000.0001)                 6.323394366773988E-04,      /* K = 40 */
(PID.TID 0000.0001)                 2.116400889729883E-04       /* K = 41 */
(PID.TID 0000.0001)     ;
(PID.TID 0000.0001) dBdrRef = /* Vertical grad. of reference buoyancy [(m/s/r)^2] */
(PID.TID 0000.0001)                 0.000000000000000E+00,      /* K =  1 */
(PID.TID 0000.0001)                 8.169103529075544E-07,      /* K =  2 */
(PID.TID 0000.0001)                 8.933003112510555E-07,      /* K =  3 */
(PID.TID 0000.0001)                 9.140144827755176E-07,      /* K =  4 */
(PID.TID 0000.0001)                 9.824809251395538E-07,      /* K =  5 */
(PID.TID 0000.0001)                 1.076991896257958E-06,      /* K =  6 */
(PID.TID 0000.0001)                 1.144799324512261E-06,      /* K =  7 */
(PID.TID 0000.0001)                 1.339881825246834E-06,      /* K =  8 */
(PID.TID 0000.0001)                 1.555783199439551E-06,      /* K =  9 */
(PID.TID 0000.0001)                 1.718539838792752E-06,      /* K = 10 */
(PID.TID 0000.0001)                 1.985185219370597E-06,      /* K = 11 */
(PID.TID 0000.0001)                 2.288675718731567E-06,      /* K = 12 */
(PID.TID 0000.0001)                 2.827072194059166E-06,      /* K = 13 */
(PID.TID 0000.0001)                 3.353247414197601E-06,      /* K = 14 */
(PID.TID 0000.0001)                 4.090381036667505E-06,      /* K = 15 */
(PID.TID 0000.0001)                 5.352342643956161E-06,      /* K = 16 */
(PID.TID 0000.0001)                 6.928586340993053E-06,      /* K = 17 */
(PID.TID 0000.0001)                 9.733453207411542E-06,      /* K = 18 */
(PID.TID 0000.0001)                 3.835804065858108E-05,      /* K = 19 */
(PID.TID 0000.0001)                 6.116373243735326E-05,      /* K = 20 */
(PID.TID 0000.0001)                 9.674173507712006E-05,      /* K = 21 */
(PID.TID 0000.0001)                 1.594857457800168E-04,      /* K = 22 */
(PID.TID 0000.0001)                 2.731481747372073E-04,      /* K = 23 */
(PID.TID 0000.0001)                 4.891728617035385E-04,      /* K = 24 */
(PID.TID 0000.0001)                 9.572465660998279E-04,      /* K = 25 */
(PID.TID 0000.0001)                 1.749117517308095E-03,      /* K = 26 */
(PID.TID 0000.0001)                 3.159080469895735E-03,      /* K = 27 */
(PID.TID 0000.0001)                 5.778383311090678E-03,      /* K = 28 */
(PID.TID 0000.0001)                 1.080662291464145E-02,      /* K = 29 */
(PID.TID 0000.0001)                 1.993526856406355E-02,      /* K = 30 */
(PID.TID 0000.0001)                 4.255909281447864E-02,      /* K = 31 */
(PID.TID 0000.0001)                 8.064024507785998E-02,      /* K = 32 */
(PID.TID 0000.0001)                 1.594129033656750E-01,      /* K = 33 */
(PID.TID 0000.0001)                 3.456852202805834E-01,      /* K = 34 */
(PID.TID 0000.0001)                 8.752743688830281E-01,      /* K = 35 */
(PID.TID 0000.0001)                 2.292877285940959E+00,      /* K = 36 */
(PID.TID 0000.0001)                 5.665837399173953E+00,      /* K = 37 */
(PID.TID 0000.0001)                 2.138781873327598E+01,      /* K = 38 */
(PID.TID 0000.0001)                 1.048927160501358E+02,      /* K = 39 */
(PID.TID 0000.0001)                 7.046907155746502E+02       /* K = 40 */
(PID.TID 0000.0001)     ;
(PID.TID 0000.0001) rotateGrid = /* use rotated grid ( True/False ) */
(PID.TID 0000.0001)                   F
(PID.TID 0000.0001)     ;
(PID.TID 0000.0001) phiEuler = /* Euler angle, rotation about original z-coordinate [rad] */
(PID.TID 0000.0001)                 0.000000000000000E+00
(PID.TID 0000.0001)     ;
(PID.TID 0000.0001) thetaEuler = /* Euler angle, rotation about new x-coordinate [rad] */
(PID.TID 0000.0001)                 0.000000000000000E+00
(PID.TID 0000.0001)     ;
(PID.TID 0000.0001) psiEuler = /* Euler angle, rotation about new z-coordinate [rad] */
(PID.TID 0000.0001)                 0.000000000000000E+00
(PID.TID 0000.0001)     ;
(PID.TID 0000.0001) dxF =  /* dxF(:,1,:,1) ( units: m ) */
(PID.TID 0000.0001)                 1.202082051331828E+05,      /* I =  1 */
(PID.TID 0000.0001)                 1.563594089971120E+05,      /* I =  2 */
(PID.TID 0000.0001)                 1.835530058121492E+05,      /* I =  3 */
(PID.TID 0000.0001)      . . .
(PID.TID 0000.0001)                 2.978501920522794E+05,      /* I = 46 */
(PID.TID 0000.0001)                 3.000967749619962E+05,      /* I = 47 */
(PID.TID 0000.0001)                 3.012190981969055E+05,      /* I = 48 */
(PID.TID 0000.0001)                 3.012190981969055E+05,      /* I = 49 */
(PID.TID 0000.0001)                 3.000967749619962E+05,      /* I = 50 */
(PID.TID 0000.0001)                 2.978501920522794E+05,      /* I = 51 */
(PID.TID 0000.0001)      . . .
(PID.TID 0000.0001)                 1.835530058121492E+05,      /* I = 94 */
(PID.TID 0000.0001)                 1.563594089971120E+05,      /* I = 95 */
(PID.TID 0000.0001)                 1.202082051331828E+05,      /* I = 96 */
(PID.TID 0000.0001)                 1.202082051331828E+05,      /* I = 97 */
(PID.TID 0000.0001)                 1.563594089971120E+05,      /* I = 98 */
(PID.TID 0000.0001)                 1.835530058121492E+05,      /* I = 99 */
(PID.TID 0000.0001)      . . .
(PID.TID 0000.0001)                 2.978501920522794E+05,      /* I =142 */
(PID.TID 0000.0001)                 3.000967749619962E+05,      /* I =143 */
(PID.TID 0000.0001)                 3.012190981969055E+05,      /* I =144 */
(PID.TID 0000.0001)                 3.012190981969055E+05,      /* I =145 */
(PID.TID 0000.0001)                 3.000967749619962E+05,      /* I =146 */
(PID.TID 0000.0001)                 2.978501920522794E+05,      /* I =147 */
(PID.TID 0000.0001)      . . .
(PID.TID 0000.0001)                 1.835530058121492E+05,      /* I =190 */
(PID.TID 0000.0001)                 1.563594089971120E+05,      /* I =191 */
(PID.TID 0000.0001)                 1.202082051331828E+05       /* I =192 */
(PID.TID 0000.0001)     ;
(PID.TID 0000.0001) dxF =  /* dxF(1,:,1,:) ( units: m ) */
(PID.TID 0000.0001)                 1.202082051331828E+05,      /* J =  1 */
(PID.TID 0000.0001)                 1.572908084538706E+05,      /* J =  2 */
(PID.TID 0000.0001)                 1.840412227747703E+05,      /* J =  3 */
(PID.TID 0000.0001)                 2.048868197919576E+05,      /* J =  4 */
(PID.TID 0000.0001)                 2.220405216043041E+05,      /* J =  5 */
(PID.TID 0000.0001)                 2.365892017348392E+05,      /* J =  6 */
(PID.TID 0000.0001)                 2.491250781852558E+05,      /* J =  7 */
(PID.TID 0000.0001)                 2.599949918261881E+05,      /* J =  8 */
(PID.TID 0000.0001)                 2.694110134598581E+05,      /* J =  9 */
(PID.TID 0000.0001)                 2.775055554645015E+05,      /* J = 10 */
(PID.TID 0000.0001)                 2.843615645344775E+05,      /* J = 11 */
(PID.TID 0000.0001)                 2.900303768613599E+05,      /* J = 12 */
(PID.TID 0000.0001)                 2.945429307892709E+05,      /* J = 13 */
(PID.TID 0000.0001)                 2.979171143158405E+05,      /* J = 14 */
(PID.TID 0000.0001)                 3.001626787528886E+05,      /* J = 15 */
(PID.TID 0000.0001)     2 @  3.012844832048790E+05,             /* J = 16: 17 */
(PID.TID 0000.0001)                 3.001626787528886E+05,      /* J = 18 */
(PID.TID 0000.0001)                 2.979171143158405E+05,      /* J = 19 */
(PID.TID 0000.0001)                 2.945429307892709E+05,      /* J = 20 */
(PID.TID 0000.0001)                 2.900303768613599E+05,      /* J = 21 */
(PID.TID 0000.0001)                 2.843615645344775E+05,      /* J = 22 */
(PID.TID 0000.0001)                 2.775055554645015E+05,      /* J = 23 */
(PID.TID 0000.0001)                 2.694110134598581E+05,      /* J = 24 */
(PID.TID 0000.0001)                 2.599949918261881E+05,      /* J = 25 */
(PID.TID 0000.0001)                 2.491250781852558E+05,      /* J = 26 */
(PID.TID 0000.0001)                 2.365892017348392E+05,      /* J = 27 */
(PID.TID 0000.0001)                 2.220405216043041E+05,      /* J = 28 */
(PID.TID 0000.0001)                 2.048868197919576E+05,      /* J = 29 */
(PID.TID 0000.0001)                 1.840412227747703E+05,      /* J = 30 */
(PID.TID 0000.0001)                 1.572908084538706E+05,      /* J = 31 */
(PID.TID 0000.0001)                 1.202082051331828E+05       /* J = 32 */
(PID.TID 0000.0001)     ;
(PID.TID 0000.0001) dyF =  /* dyF(:,1,:,1) ( units: m ) */
(PID.TID 0000.0001)                 1.202082051331828E+05,      /* I =  1 */
(PID.TID 0000.0001)                 1.572908084538706E+05,      /* I =  2 */
(PID.TID 0000.0001)                 1.840412227747703E+05,      /* I =  3 */
(PID.TID 0000.0001)      . . .
(PID.TID 0000.0001)                 2.979171143158405E+05,      /* I = 46 */
(PID.TID 0000.0001)                 3.001626787528886E+05,      /* I = 47 */
(PID.TID 0000.0001)                 3.012844832048790E+05,      /* I = 48 */
(PID.TID 0000.0001)                 3.012844832048790E+05,      /* I = 49 */
(PID.TID 0000.0001)                 3.001626787528886E+05,      /* I = 50 */
(PID.TID 0000.0001)                 2.979171143158405E+05,      /* I = 51 */
(PID.TID 0000.0001)      . . .
(PID.TID 0000.0001)                 1.840412227747703E+05,      /* I = 94 */
(PID.TID 0000.0001)                 1.572908084538706E+05,      /* I = 95 */
(PID.TID 0000.0001)                 1.202082051331828E+05,      /* I = 96 */
(PID.TID 0000.0001)                 1.202082051331828E+05,      /* I = 97 */
(PID.TID 0000.0001)                 1.572908084538706E+05,      /* I = 98 */
(PID.TID 0000.0001)                 1.840412227747703E+05,      /* I = 99 */
(PID.TID 0000.0001)      . . .
(PID.TID 0000.0001)                 2.979171143158405E+05,      /* I =142 */
(PID.TID 0000.0001)                 3.001626787528886E+05,      /* I =143 */
(PID.TID 0000.0001)                 3.012844832048790E+05,      /* I =144 */
(PID.TID 0000.0001)                 3.012844832048790E+05,      /* I =145 */
(PID.TID 0000.0001)                 3.001626787528886E+05,      /* I =146 */
(PID.TID 0000.0001)                 2.979171143158405E+05,      /* I =147 */
(PID.TID 0000.0001)      . . .
(PID.TID 0000.0001)                 1.840412227747703E+05,      /* I =190 */
(PID.TID 0000.0001)                 1.572908084538706E+05,      /* I =191 */
(PID.TID 0000.0001)                 1.202082051331828E+05       /* I =192 */
(PID.TID 0000.0001)     ;
(PID.TID 0000.0001) dyF =  /* dyF(1,:,1,:) ( units: m ) */
(PID.TID 0000.0001)                 1.202082051331828E+05,      /* J =  1 */
(PID.TID 0000.0001)                 1.563594089971120E+05,      /* J =  2 */
(PID.TID 0000.0001)                 1.835530058121492E+05,      /* J =  3 */
(PID.TID 0000.0001)                 2.045883481718707E+05,      /* J =  4 */
(PID.TID 0000.0001)                 2.218350349844185E+05,      /* J =  5 */
(PID.TID 0000.0001)                 2.364352994647058E+05,      /* J =  6 */
(PID.TID 0000.0001)                 2.490022710862746E+05,      /* J =  7 */
(PID.TID 0000.0001)                 2.598919724358304E+05,      /* J =  8 */
(PID.TID 0000.0001)                 2.693210245495156E+05,      /* J =  9 */
(PID.TID 0000.0001)                 2.774243179696503E+05,      /* J = 10 */
(PID.TID 0000.0001)                 2.842862532064524E+05,      /* J = 11 */
(PID.TID 0000.0001)                 2.899590699694043E+05,      /* J = 12 */
(PID.TID 0000.0001)                 2.944742915095688E+05,      /* J = 13 */
(PID.TID 0000.0001)                 2.978501920522794E+05,      /* J = 14 */
(PID.TID 0000.0001)                 3.000967749619962E+05,      /* J = 15 */
(PID.TID 0000.0001)     2 @  3.012190981969055E+05,             /* J = 16: 17 */
(PID.TID 0000.0001)                 3.000967749619962E+05,      /* J = 18 */
(PID.TID 0000.0001)                 2.978501920522794E+05,      /* J = 19 */
(PID.TID 0000.0001)                 2.944742915095688E+05,      /* J = 20 */
(PID.TID 0000.0001)                 2.899590699694043E+05,      /* J = 21 */
(PID.TID 0000.0001)                 2.842862532064524E+05,      /* J = 22 */
(PID.TID 0000.0001)                 2.774243179696503E+05,      /* J = 23 */
(PID.TID 0000.0001)                 2.693210245495156E+05,      /* J = 24 */
(PID.TID 0000.0001)                 2.598919724358304E+05,      /* J = 25 */
(PID.TID 0000.0001)                 2.490022710862746E+05,      /* J = 26 */
(PID.TID 0000.0001)                 2.364352994647058E+05,      /* J = 27 */
(PID.TID 0000.0001)                 2.218350349844185E+05,      /* J = 28 */
(PID.TID 0000.0001)                 2.045883481718707E+05,      /* J = 29 */
(PID.TID 0000.0001)                 1.835530058121492E+05,      /* J = 30 */
(PID.TID 0000.0001)                 1.563594089971120E+05,      /* J = 31 */
(PID.TID 0000.0001)                 1.202082051331828E+05       /* J = 32 */
(PID.TID 0000.0001)     ;
(PID.TID 0000.0001) dxG =  /* dxG(:,1,:,1) ( units: m ) */
(PID.TID 0000.0001)                 1.009837800879055E+05,      /* I =  1 */
(PID.TID 0000.0001)                 1.534505834330338E+05,      /* I =  2 */
(PID.TID 0000.0001)                 1.823321598773926E+05,      /* I =  3 */
(PID.TID 0000.0001)      . . .
(PID.TID 0000.0001)                 2.977867909042096E+05,      /* I = 46 */
(PID.TID 0000.0001)                 3.000380090330854E+05,      /* I = 47 */
(PID.TID 0000.0001)                 3.011625828699101E+05,      /* I = 48 */
(PID.TID 0000.0001)                 3.011625828699101E+05,      /* I = 49 */
(PID.TID 0000.0001)                 3.000380090330854E+05,      /* I = 50 */
(PID.TID 0000.0001)                 2.977867909042096E+05,      /* I = 51 */
(PID.TID 0000.0001)      . . .
(PID.TID 0000.0001)                 1.823321598773926E+05,      /* I = 94 */
(PID.TID 0000.0001)                 1.534505834330338E+05,      /* I = 95 */
(PID.TID 0000.0001)                 1.009837800879055E+05,      /* I = 96 */
(PID.TID 0000.0001)                 1.009837800879055E+05,      /* I = 97 */
(PID.TID 0000.0001)                 1.534505834330338E+05,      /* I = 98 */
(PID.TID 0000.0001)                 1.823321598773926E+05,      /* I = 99 */
(PID.TID 0000.0001)      . . .
(PID.TID 0000.0001)                 2.977867909042096E+05,      /* I =142 */
(PID.TID 0000.0001)                 3.000380090330854E+05,      /* I =143 */
(PID.TID 0000.0001)                 3.011625828699101E+05,      /* I =144 */
(PID.TID 0000.0001)                 3.011625828699101E+05,      /* I =145 */
(PID.TID 0000.0001)                 3.000380090330854E+05,      /* I =146 */
(PID.TID 0000.0001)                 2.977867909042096E+05,      /* I =147 */
(PID.TID 0000.0001)      . . .
(PID.TID 0000.0001)                 1.823321598773926E+05,      /* I =190 */
(PID.TID 0000.0001)                 1.534505834330338E+05,      /* I =191 */
(PID.TID 0000.0001)                 1.009837800879055E+05       /* I =192 */
(PID.TID 0000.0001)     ;
(PID.TID 0000.0001) dxG =  /* dxG(1,:,1,:) ( units: m ) */
(PID.TID 0000.0001)                 1.009837800879055E+05,      /* J =  1 */
(PID.TID 0000.0001)                 1.403701524205398E+05,      /* J =  2 */
(PID.TID 0000.0001)                 1.716197227386011E+05,      /* J =  3 */
(PID.TID 0000.0001)                 1.950254041626018E+05,      /* J =  4 */
(PID.TID 0000.0001)                 2.138410773065497E+05,      /* J =  5 */
(PID.TID 0000.0001)                 2.295958105911512E+05,      /* J =  6 */
(PID.TID 0000.0001)                 2.430829951739083E+05,      /* J =  7 */
(PID.TID 0000.0001)                 2.547526806712889E+05,      /* J =  8 */
(PID.TID 0000.0001)                 2.648750305193301E+05,      /* J =  9 */
(PID.TID 0000.0001)                 2.736173771018112E+05,      /* J = 10 */
(PID.TID 0000.0001)                 2.810845823202647E+05,      /* J = 11 */
(PID.TID 0000.0001)                 2.873420591008078E+05,      /* J = 12 */
(PID.TID 0000.0001)                 2.924298293668651E+05,      /* J = 13 */
(PID.TID 0000.0001)                 2.963715635865306E+05,      /* J = 14 */
(PID.TID 0000.0001)                 2.991805843171258E+05,      /* J = 15 */
(PID.TID 0000.0001)                 3.008638765647886E+05,      /* J = 16 */
(PID.TID 0000.0001)                 3.014246674484008E+05,      /* J = 17 */
(PID.TID 0000.0001)                 3.008638765647886E+05,      /* J = 18 */
(PID.TID 0000.0001)                 2.991805843171258E+05,      /* J = 19 */
(PID.TID 0000.0001)                 2.963715635865306E+05,      /* J = 20 */
(PID.TID 0000.0001)                 2.924298293668651E+05,      /* J = 21 */
(PID.TID 0000.0001)                 2.873420591008078E+05,      /* J = 22 */
(PID.TID 0000.0001)                 2.810845823202647E+05,      /* J = 23 */
(PID.TID 0000.0001)                 2.736173771018112E+05,      /* J = 24 */
(PID.TID 0000.0001)                 2.648750305193301E+05,      /* J = 25 */
(PID.TID 0000.0001)                 2.547526806712889E+05,      /* J = 26 */
(PID.TID 0000.0001)                 2.430829951739083E+05,      /* J = 27 */
(PID.TID 0000.0001)                 2.295958105911512E+05,      /* J = 28 */
(PID.TID 0000.0001)                 2.138410773065497E+05,      /* J = 29 */
(PID.TID 0000.0001)                 1.950254041626018E+05,      /* J = 30 */
(PID.TID 0000.0001)                 1.716197227386011E+05,      /* J = 31 */
(PID.TID 0000.0001)                 1.403701524205398E+05       /* J = 32 */
(PID.TID 0000.0001)     ;
(PID.TID 0000.0001) dyG =  /* dyG(:,1,:,1) ( units: m ) */
(PID.TID 0000.0001)                 1.009837800879055E+05,      /* I =  1 */
(PID.TID 0000.0001)                 1.403701524205398E+05,      /* I =  2 */
(PID.TID 0000.0001)                 1.716197227386011E+05,      /* I =  3 */
(PID.TID 0000.0001)      . . .
(PID.TID 0000.0001)                 2.963715635865306E+05,      /* I = 46 */
(PID.TID 0000.0001)                 2.991805843171258E+05,      /* I = 47 */
(PID.TID 0000.0001)                 3.008638765647886E+05,      /* I = 48 */
(PID.TID 0000.0001)                 3.014246674484008E+05,      /* I = 49 */
(PID.TID 0000.0001)                 3.008638765647886E+05,      /* I = 50 */
(PID.TID 0000.0001)                 2.991805843171258E+05,      /* I = 51 */
(PID.TID 0000.0001)      . . .
(PID.TID 0000.0001)                 1.950254041626018E+05,      /* I = 94 */
(PID.TID 0000.0001)                 1.716197227386011E+05,      /* I = 95 */
(PID.TID 0000.0001)                 1.403701524205398E+05,      /* I = 96 */
(PID.TID 0000.0001)                 1.009837800879055E+05,      /* I = 97 */
(PID.TID 0000.0001)                 1.403701524205398E+05,      /* I = 98 */
(PID.TID 0000.0001)                 1.716197227386011E+05,      /* I = 99 */
(PID.TID 0000.0001)      . . .
(PID.TID 0000.0001)                 2.963715635865306E+05,      /* I =142 */
(PID.TID 0000.0001)                 2.991805843171258E+05,      /* I =143 */
(PID.TID 0000.0001)                 3.008638765647886E+05,      /* I =144 */
(PID.TID 0000.0001)                 3.014246674484008E+05,      /* I =145 */
(PID.TID 0000.0001)                 3.008638765647886E+05,      /* I =146 */
(PID.TID 0000.0001)                 2.991805843171258E+05,      /* I =147 */
(PID.TID 0000.0001)      . . .
(PID.TID 0000.0001)                 1.950254041626018E+05,      /* I =190 */
(PID.TID 0000.0001)                 1.716197227386011E+05,      /* I =191 */
(PID.TID 0000.0001)                 1.403701524205398E+05       /* I =192 */
(PID.TID 0000.0001)     ;
(PID.TID 0000.0001) dyG =  /* dyG(1,:,1,:) ( units: m ) */
(PID.TID 0000.0001)                 1.009837800879055E+05,      /* J =  1 */
(PID.TID 0000.0001)                 1.534505834330338E+05,      /* J =  2 */
(PID.TID 0000.0001)                 1.823321598773926E+05,      /* J =  3 */
(PID.TID 0000.0001)                 2.038999045536999E+05,      /* J =  4 */
(PID.TID 0000.0001)                 2.213884732245467E+05,      /* J =  5 */
(PID.TID 0000.0001)                 2.361211699596122E+05,      /* J =  6 */
(PID.TID 0000.0001)                 2.487693460283865E+05,      /* J =  7 */
(PID.TID 0000.0001)                 2.597126963772147E+05,      /* J =  8 */
(PID.TID 0000.0001)                 2.691790288994575E+05,      /* J =  9 */
(PID.TID 0000.0001)                 2.773091043277394E+05,      /* J = 10 */
(PID.TID 0000.0001)                 2.841906470085516E+05,      /* J = 11 */
(PID.TID 0000.0001)                 2.898778860929753E+05,      /* J = 12 */
(PID.TID 0000.0001)                 2.944035815526416E+05,      /* J = 13 */
(PID.TID 0000.0001)                 2.977867909042096E+05,      /* J = 14 */
(PID.TID 0000.0001)                 3.000380090330854E+05,      /* J = 15 */
(PID.TID 0000.0001)     2 @  3.011625828699101E+05,             /* J = 16: 17 */
(PID.TID 0000.0001)                 3.000380090330854E+05,      /* J = 18 */
(PID.TID 0000.0001)                 2.977867909042096E+05,      /* J = 19 */
(PID.TID 0000.0001)                 2.944035815526416E+05,      /* J = 20 */
(PID.TID 0000.0001)                 2.898778860929753E+05,      /* J = 21 */
(PID.TID 0000.0001)                 2.841906470085516E+05,      /* J = 22 */
(PID.TID 0000.0001)                 2.773091043277394E+05,      /* J = 23 */
(PID.TID 0000.0001)                 2.691790288994575E+05,      /* J = 24 */
(PID.TID 0000.0001)                 2.597126963772147E+05,      /* J = 25 */
(PID.TID 0000.0001)                 2.487693460283865E+05,      /* J = 26 */
(PID.TID 0000.0001)                 2.361211699596122E+05,      /* J = 27 */
(PID.TID 0000.0001)                 2.213884732245467E+05,      /* J = 28 */
(PID.TID 0000.0001)                 2.038999045536999E+05,      /* J = 29 */
(PID.TID 0000.0001)                 1.823321598773926E+05,      /* J = 30 */
(PID.TID 0000.0001)                 1.534505834330338E+05,      /* J = 31 */
(PID.TID 0000.0001)                 1.009837800879055E+05       /* J = 32 */
(PID.TID 0000.0001)     ;
(PID.TID 0000.0001) dxC =  /* dxC(:,1,:,1) ( units: m ) */
(PID.TID 0000.0001)                 1.135373000692312E+05,      /* I =  1 */
(PID.TID 0000.0001)                 1.391343389937106E+05,      /* I =  2 */
(PID.TID 0000.0001)                 1.709574999026266E+05,      /* I =  3 */
(PID.TID 0000.0001)      . . .
(PID.TID 0000.0001)                 2.963038832565530E+05,      /* I = 46 */
(PID.TID 0000.0001)                 2.991142470004740E+05,      /* I = 47 */
(PID.TID 0000.0001)                 3.007982711627968E+05,      /* I = 48 */
(PID.TID 0000.0001)                 3.013593857228136E+05,      /* I = 49 */
(PID.TID 0000.0001)                 3.007982711627968E+05,      /* I = 50 */
(PID.TID 0000.0001)                 2.991142470004740E+05,      /* I = 51 */
(PID.TID 0000.0001)      . . .
(PID.TID 0000.0001)                 1.946503699269892E+05,      /* I = 94 */
(PID.TID 0000.0001)                 1.709574999026266E+05,      /* I = 95 */
(PID.TID 0000.0001)                 1.391343389937106E+05,      /* I = 96 */
(PID.TID 0000.0001)                 1.135373000692312E+05,      /* I = 97 */
(PID.TID 0000.0001)                 1.391343389937106E+05,      /* I = 98 */
(PID.TID 0000.0001)                 1.709574999026266E+05,      /* I = 99 */
(PID.TID 0000.0001)      . . .
(PID.TID 0000.0001)                 2.963038832565530E+05,      /* I =142 */
(PID.TID 0000.0001)                 2.991142470004740E+05,      /* I =143 */
(PID.TID 0000.0001)                 3.007982711627968E+05,      /* I =144 */
(PID.TID 0000.0001)                 3.013593857228136E+05,      /* I =145 */
(PID.TID 0000.0001)                 3.007982711627968E+05,      /* I =146 */
(PID.TID 0000.0001)                 2.991142470004740E+05,      /* I =147 */
(PID.TID 0000.0001)      . . .
(PID.TID 0000.0001)                 1.946503699269892E+05,      /* I =190 */
(PID.TID 0000.0001)                 1.709574999026266E+05,      /* I =191 */
(PID.TID 0000.0001)                 1.391343389937106E+05       /* I =192 */
(PID.TID 0000.0001)     ;
(PID.TID 0000.0001) dxC =  /* dxC(1,:,1,:) ( units: m ) */
(PID.TID 0000.0001)                 1.135373000692312E+05,      /* J =  1 */
(PID.TID 0000.0001)                 1.549545757850771E+05,      /* J =  2 */
(PID.TID 0000.0001)                 1.829777599966776E+05,      /* J =  3 */
(PID.TID 0000.0001)                 2.042717761866506E+05,      /* J =  4 */
(PID.TID 0000.0001)                 2.216367828252819E+05,      /* J =  5 */
(PID.TID 0000.0001)                 2.363029564123586E+05,      /* J =  6 */
(PID.TID 0000.0001)                 2.489113743322025E+05,      /* J =  7 */
(PID.TID 0000.0001)                 2.598293319150326E+05,      /* J =  8 */
(PID.TID 0000.0001)                 2.692787333338535E+05,      /* J =  9 */
(PID.TID 0000.0001)                 2.773972106720365E+05,      /* J = 10 */
(PID.TID 0000.0001)                 2.842706922224557E+05,      /* J = 11 */
(PID.TID 0000.0001)                 2.899523122489403E+05,      /* J = 12 */
(PID.TID 0000.0001)                 2.944741346384699E+05,      /* J = 13 */
(PID.TID 0000.0001)                 2.978547649292580E+05,      /* J = 14 */
(PID.TID 0000.0001)                 3.001044073506459E+05,      /* J = 15 */
(PID.TID 0000.0001)     2 @  3.012281885409289E+05,             /* J = 16: 17 */
(PID.TID 0000.0001)                 3.001044073506459E+05,      /* J = 18 */
(PID.TID 0000.0001)                 2.978547649292580E+05,      /* J = 19 */
(PID.TID 0000.0001)                 2.944741346384699E+05,      /* J = 20 */
(PID.TID 0000.0001)                 2.899523122489403E+05,      /* J = 21 */
(PID.TID 0000.0001)                 2.842706922224557E+05,      /* J = 22 */
(PID.TID 0000.0001)                 2.773972106720365E+05,      /* J = 23 */
(PID.TID 0000.0001)                 2.692787333338535E+05,      /* J = 24 */
(PID.TID 0000.0001)                 2.598293319150326E+05,      /* J = 25 */
(PID.TID 0000.0001)                 2.489113743322025E+05,      /* J = 26 */
(PID.TID 0000.0001)                 2.363029564123586E+05,      /* J = 27 */
(PID.TID 0000.0001)                 2.216367828252819E+05,      /* J = 28 */
(PID.TID 0000.0001)                 2.042717761866506E+05,      /* J = 29 */
(PID.TID 0000.0001)                 1.829777599966776E+05,      /* J = 30 */
(PID.TID 0000.0001)                 1.549545757850771E+05,      /* J = 31 */
(PID.TID 0000.0001)                 1.135373000692312E+05       /* J = 32 */
(PID.TID 0000.0001)     ;
(PID.TID 0000.0001) dyC =  /* dyC(:,1,:,1) ( units: m ) */
(PID.TID 0000.0001)                 1.135373000692312E+05,      /* I =  1 */
(PID.TID 0000.0001)                 1.549545757850771E+05,      /* I =  2 */
(PID.TID 0000.0001)                 1.829777599966776E+05,      /* I =  3 */
(PID.TID 0000.0001)      . . .
(PID.TID 0000.0001)                 2.978547649292580E+05,      /* I = 46 */
(PID.TID 0000.0001)                 3.001044073506459E+05,      /* I = 47 */
(PID.TID 0000.0001)                 3.012281885409289E+05,      /* I = 48 */
(PID.TID 0000.0001)                 3.012281885409289E+05,      /* I = 49 */
(PID.TID 0000.0001)                 3.001044073506459E+05,      /* I = 50 */
(PID.TID 0000.0001)                 2.978547649292580E+05,      /* I = 51 */
(PID.TID 0000.0001)      . . .
(PID.TID 0000.0001)                 1.829777599966776E+05,      /* I = 94 */
(PID.TID 0000.0001)                 1.549545757850771E+05,      /* I = 95 */
(PID.TID 0000.0001)                 1.135373000692312E+05,      /* I = 96 */
(PID.TID 0000.0001)                 1.135373000692312E+05,      /* I = 97 */
(PID.TID 0000.0001)                 1.549545757850771E+05,      /* I = 98 */
(PID.TID 0000.0001)                 1.829777599966776E+05,      /* I = 99 */
(PID.TID 0000.0001)      . . .
(PID.TID 0000.0001)                 2.978547649292580E+05,      /* I =142 */
(PID.TID 0000.0001)                 3.001044073506459E+05,      /* I =143 */
(PID.TID 0000.0001)                 3.012281885409289E+05,      /* I =144 */
(PID.TID 0000.0001)                 3.012281885409289E+05,      /* I =145 */
(PID.TID 0000.0001)                 3.001044073506459E+05,      /* I =146 */
(PID.TID 0000.0001)                 2.978547649292580E+05,      /* I =147 */
(PID.TID 0000.0001)      . . .
(PID.TID 0000.0001)                 1.829777599966776E+05,      /* I =190 */
(PID.TID 0000.0001)                 1.549545757850771E+05,      /* I =191 */
(PID.TID 0000.0001)                 1.135373000692312E+05       /* I =192 */
(PID.TID 0000.0001)     ;
(PID.TID 0000.0001) dyC =  /* dyC(1,:,1,:) ( units: m ) */
(PID.TID 0000.0001)                 1.135373000692312E+05,      /* J =  1 */
(PID.TID 0000.0001)                 1.391343389937106E+05,      /* J =  2 */
(PID.TID 0000.0001)                 1.709574999026266E+05,      /* J =  3 */
(PID.TID 0000.0001)                 1.946503699269892E+05,      /* J =  4 */
(PID.TID 0000.0001)                 2.135964483342134E+05,      /* J =  5 */
(PID.TID 0000.0001)                 2.294195678257306E+05,      /* J =  6 */
(PID.TID 0000.0001)                 2.429464709770498E+05,      /* J =  7 */
(PID.TID 0000.0001)                 2.546408290696998E+05,      /* J =  8 */
(PID.TID 0000.0001)                 2.647791839299727E+05,      /* J =  9 */
(PID.TID 0000.0001)                 2.735321911346108E+05,      /* J = 10 */
(PID.TID 0000.0001)                 2.810065951609633E+05,      /* J = 11 */
(PID.TID 0000.0001)                 2.872689479506990E+05,      /* J = 12 */
(PID.TID 0000.0001)                 2.923599955312932E+05,      /* J = 13 */
(PID.TID 0000.0001)                 2.963038832565530E+05,      /* J = 14 */
(PID.TID 0000.0001)                 2.991142470004740E+05,      /* J = 15 */
(PID.TID 0000.0001)                 3.007982711627968E+05,      /* J = 16 */
(PID.TID 0000.0001)                 3.013593857228136E+05,      /* J = 17 */
(PID.TID 0000.0001)                 3.007982711627968E+05,      /* J = 18 */
(PID.TID 0000.0001)                 2.991142470004740E+05,      /* J = 19 */
(PID.TID 0000.0001)                 2.963038832565530E+05,      /* J = 20 */
(PID.TID 0000.0001)                 2.923599955312932E+05,      /* J = 21 */
(PID.TID 0000.0001)                 2.872689479506990E+05,      /* J = 22 */
(PID.TID 0000.0001)                 2.810065951609633E+05,      /* J = 23 */
(PID.TID 0000.0001)                 2.735321911346108E+05,      /* J = 24 */
(PID.TID 0000.0001)                 2.647791839299727E+05,      /* J = 25 */
(PID.TID 0000.0001)                 2.546408290696998E+05,      /* J = 26 */
(PID.TID 0000.0001)                 2.429464709770498E+05,      /* J = 27 */
(PID.TID 0000.0001)                 2.294195678257306E+05,      /* J = 28 */
(PID.TID 0000.0001)                 2.135964483342134E+05,      /* J = 29 */
(PID.TID 0000.0001)                 1.946503699269892E+05,      /* J = 30 */
(PID.TID 0000.0001)                 1.709574999026266E+05,      /* J = 31 */
(PID.TID 0000.0001)                 1.391343389937106E+05       /* J = 32 */
(PID.TID 0000.0001)     ;
(PID.TID 0000.0001) dxV =  /* dxV(:,1,:,1) ( units: m ) */
(PID.TID 0000.0001)                 8.015229982413632E+04,      /* I =  1 */
(PID.TID 0000.0001)                 1.333130744933864E+05,      /* I =  2 */
(PID.TID 0000.0001)                 1.691744868129062E+05,      /* I =  3 */
(PID.TID 0000.0001)      . . .
(PID.TID 0000.0001)                 2.962371870847826E+05,      /* I = 46 */
(PID.TID 0000.0001)                 2.990534755671296E+05,      /* I = 47 */
(PID.TID 0000.0001)                 3.007409169495504E+05,      /* I = 48 */
(PID.TID 0000.0001)                 3.013031486919771E+05,      /* I = 49 */
(PID.TID 0000.0001)                 3.007409169495504E+05,      /* I = 50 */
(PID.TID 0000.0001)                 2.990534755671296E+05,      /* I = 51 */
(PID.TID 0000.0001)      . . .
(PID.TID 0000.0001)                 1.937548202849060E+05,      /* I = 94 */
(PID.TID 0000.0001)                 1.691744868129062E+05,      /* I = 95 */
(PID.TID 0000.0001)                 1.333130744933864E+05,      /* I = 96 */
(PID.TID 0000.0001)                 8.015229982413632E+04,      /* I = 97 */
(PID.TID 0000.0001)                 1.333130744933864E+05,      /* I = 98 */
(PID.TID 0000.0001)                 1.691744868129062E+05,      /* I = 99 */
(PID.TID 0000.0001)      . . .
(PID.TID 0000.0001)                 2.962371870847826E+05,      /* I =142 */
(PID.TID 0000.0001)                 2.990534755671296E+05,      /* I =143 */
(PID.TID 0000.0001)                 3.007409169495504E+05,      /* I =144 */
(PID.TID 0000.0001)                 3.013031486919771E+05,      /* I =145 */
(PID.TID 0000.0001)                 3.007409169495504E+05,      /* I =146 */
(PID.TID 0000.0001)                 2.990534755671296E+05,      /* I =147 */
(PID.TID 0000.0001)      . . .
(PID.TID 0000.0001)                 1.937548202849060E+05,      /* I =190 */
(PID.TID 0000.0001)                 1.691744868129062E+05,      /* I =191 */
(PID.TID 0000.0001)                 1.333130744933864E+05       /* I =192 */
(PID.TID 0000.0001)     ;
(PID.TID 0000.0001) dxV =  /* dxV(1,:,1,:) ( units: m ) */
(PID.TID 0000.0001)                 8.015229982413632E+04,      /* J =  1 */
(PID.TID 0000.0001)                 1.362652340208229E+05,      /* J =  2 */
(PID.TID 0000.0001)                 1.701080315742101E+05,      /* J =  3 */
(PID.TID 0000.0001)                 1.942331448101592E+05,      /* J =  4 */
(PID.TID 0000.0001)                 2.133486626971531E+05,      /* J =  5 */
(PID.TID 0000.0001)                 2.292584591272880E+05,      /* J =  6 */
(PID.TID 0000.0001)                 2.428369969078989E+05,      /* J =  7 */
(PID.TID 0000.0001)                 2.545652950875683E+05,      /* J =  8 */
(PID.TID 0000.0001)                 2.647274964828301E+05,      /* J =  9 */
(PID.TID 0000.0001)                 2.734980225206389E+05,      /* J = 10 */
(PID.TID 0000.0001)                 2.809856491525217E+05,      /* J = 11 */
(PID.TID 0000.0001)                 2.872580915202295E+05,      /* J = 12 */
(PID.TID 0000.0001)                 2.923567890694162E+05,      /* J = 13 */
(PID.TID 0000.0001)                 2.963063101754721E+05,      /* J = 14 */
(PID.TID 0000.0001)                 2.991205495886625E+05,      /* J = 15 */
(PID.TID 0000.0001)                 3.008068453676764E+05,      /* J = 16 */
(PID.TID 0000.0001)                 3.013686170436881E+05,      /* J = 17 */
(PID.TID 0000.0001)                 3.008068453676764E+05,      /* J = 18 */
(PID.TID 0000.0001)                 2.991205495886625E+05,      /* J = 19 */
(PID.TID 0000.0001)                 2.963063101754721E+05,      /* J = 20 */
(PID.TID 0000.0001)                 2.923567890694162E+05,      /* J = 21 */
(PID.TID 0000.0001)                 2.872580915202295E+05,      /* J = 22 */
(PID.TID 0000.0001)                 2.809856491525217E+05,      /* J = 23 */
(PID.TID 0000.0001)                 2.734980225206389E+05,      /* J = 24 */
(PID.TID 0000.0001)                 2.647274964828301E+05,      /* J = 25 */
(PID.TID 0000.0001)                 2.545652950875683E+05,      /* J = 26 */
(PID.TID 0000.0001)                 2.428369969078989E+05,      /* J = 27 */
(PID.TID 0000.0001)                 2.292584591272880E+05,      /* J = 28 */
(PID.TID 0000.0001)                 2.133486626971531E+05,      /* J = 29 */
(PID.TID 0000.0001)                 1.942331448101592E+05,      /* J = 30 */
(PID.TID 0000.0001)                 1.701080315742101E+05,      /* J = 31 */
(PID.TID 0000.0001)                 1.362652340208229E+05       /* J = 32 */
(PID.TID 0000.0001)     ;
(PID.TID 0000.0001) dyU =  /* dyU(:,1,:,1) ( units: m ) */
(PID.TID 0000.0001)                 8.015229982413632E+04,      /* I =  1 */
(PID.TID 0000.0001)                 1.362652340208229E+05,      /* I =  2 */
(PID.TID 0000.0001)                 1.701080315742101E+05,      /* I =  3 */
(PID.TID 0000.0001)      . . .
(PID.TID 0000.0001)                 2.963063101754721E+05,      /* I = 46 */
(PID.TID 0000.0001)                 2.991205495886625E+05,      /* I = 47 */
(PID.TID 0000.0001)                 3.008068453676764E+05,      /* I = 48 */
(PID.TID 0000.0001)                 3.013686170436881E+05,      /* I = 49 */
(PID.TID 0000.0001)                 3.008068453676764E+05,      /* I = 50 */
(PID.TID 0000.0001)                 2.991205495886625E+05,      /* I = 51 */
(PID.TID 0000.0001)      . . .
(PID.TID 0000.0001)                 1.942331448101592E+05,      /* I = 94 */
(PID.TID 0000.0001)                 1.701080315742101E+05,      /* I = 95 */
(PID.TID 0000.0001)                 1.362652340208229E+05,      /* I = 96 */
(PID.TID 0000.0001)                 8.015229982413632E+04,      /* I = 97 */
(PID.TID 0000.0001)                 1.362652340208229E+05,      /* I = 98 */
(PID.TID 0000.0001)                 1.701080315742101E+05,      /* I = 99 */
(PID.TID 0000.0001)      . . .
(PID.TID 0000.0001)                 2.963063101754721E+05,      /* I =142 */
(PID.TID 0000.0001)                 2.991205495886625E+05,      /* I =143 */
(PID.TID 0000.0001)                 3.008068453676764E+05,      /* I =144 */
(PID.TID 0000.0001)                 3.013686170436881E+05,      /* I =145 */
(PID.TID 0000.0001)                 3.008068453676764E+05,      /* I =146 */
(PID.TID 0000.0001)                 2.991205495886625E+05,      /* I =147 */
(PID.TID 0000.0001)      . . .
(PID.TID 0000.0001)                 1.942331448101592E+05,      /* I =190 */
(PID.TID 0000.0001)                 1.701080315742101E+05,      /* I =191 */
(PID.TID 0000.0001)                 1.362652340208229E+05       /* I =192 */
(PID.TID 0000.0001)     ;
(PID.TID 0000.0001) dyU =  /* dyU(1,:,1,:) ( units: m ) */
(PID.TID 0000.0001)                 8.015229982413632E+04,      /* J =  1 */
(PID.TID 0000.0001)                 1.333130744933864E+05,      /* J =  2 */
(PID.TID 0000.0001)                 1.691744868129062E+05,      /* J =  3 */
(PID.TID 0000.0001)                 1.937548202849060E+05,      /* J =  4 */
(PID.TID 0000.0001)                 2.130490056267208E+05,      /* J =  5 */
(PID.TID 0000.0001)                 2.290479919481738E+05,      /* J =  6 */
(PID.TID 0000.0001)                 2.426774358027003E+05,      /* J =  7 */
(PID.TID 0000.0001)                 2.544372984215561E+05,      /* J =  8 */
(PID.TID 0000.0001)                 2.646201463834826E+05,      /* J =  9 */
(PID.TID 0000.0001)                 2.734046499619031E+05,      /* J = 10 */
(PID.TID 0000.0001)                 2.809019351693761E+05,      /* J = 11 */
(PID.TID 0000.0001)                 2.871811105274442E+05,      /* J = 12 */
(PID.TID 0000.0001)                 2.922844849381675E+05,      /* J = 13 */
(PID.TID 0000.0001)                 2.962371870847826E+05,      /* J = 14 */
(PID.TID 0000.0001)                 2.990534755671296E+05,      /* J = 15 */
(PID.TID 0000.0001)                 3.007409169495504E+05,      /* J = 16 */
(PID.TID 0000.0001)                 3.013031486919771E+05,      /* J = 17 */
(PID.TID 0000.0001)                 3.007409169495504E+05,      /* J = 18 */
(PID.TID 0000.0001)                 2.990534755671296E+05,      /* J = 19 */
(PID.TID 0000.0001)                 2.962371870847826E+05,      /* J = 20 */
(PID.TID 0000.0001)                 2.922844849381675E+05,      /* J = 21 */
(PID.TID 0000.0001)                 2.871811105274442E+05,      /* J = 22 */
(PID.TID 0000.0001)                 2.809019351693761E+05,      /* J = 23 */
(PID.TID 0000.0001)                 2.734046499619031E+05,      /* J = 24 */
(PID.TID 0000.0001)                 2.646201463834826E+05,      /* J = 25 */
(PID.TID 0000.0001)                 2.544372984215561E+05,      /* J = 26 */
(PID.TID 0000.0001)                 2.426774358027003E+05,      /* J = 27 */
(PID.TID 0000.0001)                 2.290479919481738E+05,      /* J = 28 */
(PID.TID 0000.0001)                 2.130490056267208E+05,      /* J = 29 */
(PID.TID 0000.0001)                 1.937548202849060E+05,      /* J = 30 */
(PID.TID 0000.0001)                 1.691744868129062E+05,      /* J = 31 */
(PID.TID 0000.0001)                 1.333130744933864E+05       /* J = 32 */
(PID.TID 0000.0001)     ;
(PID.TID 0000.0001) rA  =  /* rA (:,1,:,1) ( units: m^2 ) */
(PID.TID 0000.0001)                 1.549786705672200E+10,      /* I =  1 */
(PID.TID 0000.0001)                 2.487202533723944E+10,      /* I =  2 */
(PID.TID 0000.0001)                 3.392265412140352E+10,      /* I =  3 */
(PID.TID 0000.0001)      . . .
(PID.TID 0000.0001)                 8.871245486529788E+10,      /* I = 46 */
(PID.TID 0000.0001)                 9.005359372079962E+10,      /* I = 47 */
(PID.TID 0000.0001)                 9.072735712796770E+10,      /* I = 48 */
(PID.TID 0000.0001)                 9.072735712796770E+10,      /* I = 49 */
(PID.TID 0000.0001)                 9.005359372079962E+10,      /* I = 50 */
(PID.TID 0000.0001)                 8.871245486529788E+10,      /* I = 51 */
(PID.TID 0000.0001)      . . .
(PID.TID 0000.0001)                 3.392265412140352E+10,      /* I = 94 */
(PID.TID 0000.0001)                 2.487202533723944E+10,      /* I = 95 */
(PID.TID 0000.0001)                 1.549786705672200E+10,      /* I = 96 */
(PID.TID 0000.0001)                 1.549786705672200E+10,      /* I = 97 */
(PID.TID 0000.0001)                 2.487202533723944E+10,      /* I = 98 */
(PID.TID 0000.0001)                 3.392265412140352E+10,      /* I = 99 */
(PID.TID 0000.0001)      . . .
(PID.TID 0000.0001)                 8.871245486529788E+10,      /* I =142 */
(PID.TID 0000.0001)                 9.005359372079962E+10,      /* I =143 */
(PID.TID 0000.0001)                 9.072735712796770E+10,      /* I =144 */
(PID.TID 0000.0001)                 9.072735712796770E+10,      /* I =145 */
(PID.TID 0000.0001)                 9.005359372079962E+10,      /* I =146 */
(PID.TID 0000.0001)                 8.871245486529788E+10,      /* I =147 */
(PID.TID 0000.0001)      . . .
(PID.TID 0000.0001)                 3.392265412140352E+10,      /* I =190 */
(PID.TID 0000.0001)                 2.487202533723944E+10,      /* I =191 */
(PID.TID 0000.0001)                 1.549786705672200E+10       /* I =192 */
(PID.TID 0000.0001)     ;
(PID.TID 0000.0001) rA  =  /* rA (1,:,1,:) ( units: m^2 ) */
(PID.TID 0000.0001)                 1.549786705672200E+10,      /* J =  1 */
(PID.TID 0000.0001)                 2.487202533723944E+10,      /* J =  2 */
(PID.TID 0000.0001)                 3.392265412140352E+10,      /* J =  3 */
(PID.TID 0000.0001)                 4.200427377313133E+10,      /* J =  4 */
(PID.TID 0000.0001)                 4.931323764668228E+10,      /* J =  5 */
(PID.TID 0000.0001)                 5.597545074899419E+10,      /* J =  6 */
(PID.TID 0000.0001)                 6.205603937791459E+10,      /* J =  7 */
(PID.TID 0000.0001)                 6.758299971934573E+10,      /* J =  8 */
(PID.TID 0000.0001)                 7.256155653843707E+10,      /* J =  9 */
(PID.TID 0000.0001)                 7.698291833687604E+10,      /* J = 10 */
(PID.TID 0000.0001)                 8.083005486272011E+10,      /* J = 11 */
(PID.TID 0000.0001)                 8.408183191745641E+10,      /* J = 12 */
(PID.TID 0000.0001)                 8.671615787312848E+10,      /* J = 13 */
(PID.TID 0000.0001)                 8.871245486529788E+10,      /* J = 14 */
(PID.TID 0000.0001)                 9.005359372079964E+10,      /* J = 15 */
(PID.TID 0000.0001)     2 @  9.072735712796770E+10,             /* J = 16: 17 */
(PID.TID 0000.0001)                 9.005359372079964E+10,      /* J = 18 */
(PID.TID 0000.0001)                 8.871245486529788E+10,      /* J = 19 */
(PID.TID 0000.0001)                 8.671615787312848E+10,      /* J = 20 */
(PID.TID 0000.0001)                 8.408183191745641E+10,      /* J = 21 */
(PID.TID 0000.0001)                 8.083005486272011E+10,      /* J = 22 */
(PID.TID 0000.0001)                 7.698291833687604E+10,      /* J = 23 */
(PID.TID 0000.0001)                 7.256155653843707E+10,      /* J = 24 */
(PID.TID 0000.0001)                 6.758299971934573E+10,      /* J = 25 */
(PID.TID 0000.0001)                 6.205603937791459E+10,      /* J = 26 */
(PID.TID 0000.0001)                 5.597545074899419E+10,      /* J = 27 */
(PID.TID 0000.0001)                 4.931323764668228E+10,      /* J = 28 */
(PID.TID 0000.0001)                 4.200427377313133E+10,      /* J = 29 */
(PID.TID 0000.0001)                 3.392265412140352E+10,      /* J = 30 */
(PID.TID 0000.0001)                 2.487202533723944E+10,      /* J = 31 */
(PID.TID 0000.0001)                 1.549786705672200E+10       /* J = 32 */
(PID.TID 0000.0001)     ;
(PID.TID 0000.0001) rAw =  /* rAw(:,1,:,1) ( units: m^2 ) */
(PID.TID 0000.0001)                 1.146542574196578E+10,      /* I =  1 */
(PID.TID 0000.0001)                 1.953030837147821E+10,      /* I =  2 */
(PID.TID 0000.0001)                 2.933967873337320E+10,      /* I =  3 */
(PID.TID 0000.0001)      . . .
(PID.TID 0000.0001)                 8.781604517750543E+10,      /* I = 46 */
(PID.TID 0000.0001)                 8.948917519517891E+10,      /* I = 47 */
(PID.TID 0000.0001)                 9.049933392602551E+10,      /* I = 48 */
(PID.TID 0000.0001)                 9.083715262395341E+10,      /* I = 49 */
(PID.TID 0000.0001)                 9.049933392602551E+10,      /* I = 50 */
(PID.TID 0000.0001)                 8.948917519517891E+10,      /* I = 51 */
(PID.TID 0000.0001)      . . .
(PID.TID 0000.0001)                 3.796176706541101E+10,      /* I = 94 */
(PID.TID 0000.0001)                 2.933967873337320E+10,      /* I = 95 */
(PID.TID 0000.0001)                 1.953030837147821E+10,      /* I = 96 */
(PID.TID 0000.0001)                 1.146542574196578E+10,      /* I = 97 */
(PID.TID 0000.0001)                 1.953030837147821E+10,      /* I = 98 */
(PID.TID 0000.0001)                 2.933967873337320E+10,      /* I = 99 */
(PID.TID 0000.0001)      . . .
(PID.TID 0000.0001)                 8.781604517750543E+10,      /* I =142 */
(PID.TID 0000.0001)                 8.948917519517891E+10,      /* I =143 */
(PID.TID 0000.0001)                 9.049933392602551E+10,      /* I =144 */
(PID.TID 0000.0001)                 9.083715262395341E+10,      /* I =145 */
(PID.TID 0000.0001)                 9.049933392602551E+10,      /* I =146 */
(PID.TID 0000.0001)                 8.948917519517891E+10,      /* I =147 */
(PID.TID 0000.0001)      . . .
(PID.TID 0000.0001)                 3.796176706541101E+10,      /* I =190 */
(PID.TID 0000.0001)                 2.933967873337320E+10,      /* I =191 */
(PID.TID 0000.0001)                 1.953030837147821E+10       /* I =192 */
(PID.TID 0000.0001)     ;
(PID.TID 0000.0001) rAw =  /* rAw(1,:,1,:) ( units: m^2 ) */
(PID.TID 0000.0001)                 1.146542574196578E+10,      /* J =  1 */
(PID.TID 0000.0001)                 2.377787005983833E+10,      /* J =  2 */
(PID.TID 0000.0001)                 3.336273018972140E+10,      /* J =  3 */
(PID.TID 0000.0001)                 4.165099566747280E+10,      /* J =  4 */
(PID.TID 0000.0001)                 4.906782896008959E+10,      /* J =  5 */
(PID.TID 0000.0001)                 5.579613053300137E+10,      /* J =  6 */
(PID.TID 0000.0001)                 6.192151981164894E+10,      /* J =  7 */
(PID.TID 0000.0001)                 6.748097638954340E+10,      /* J =  8 */
(PID.TID 0000.0001)                 7.248418794208269E+10,      /* J =  9 */
(PID.TID 0000.0001)                 7.692477203447566E+10,      /* J = 10 */
(PID.TID 0000.0001)                 8.078707194826852E+10,      /* J = 11 */
(PID.TID 0000.0001)                 8.405076334249313E+10,      /* J = 12 */
(PID.TID 0000.0001)                 8.669423991218034E+10,      /* J = 13 */
(PID.TID 0000.0001)                 8.869721460381146E+10,      /* J = 14 */
(PID.TID 0000.0001)                 9.004272888354184E+10,      /* J = 15 */
(PID.TID 0000.0001)     2 @  9.071865929421040E+10,             /* J = 16: 17 */
(PID.TID 0000.0001)                 9.004272888354184E+10,      /* J = 18 */
(PID.TID 0000.0001)                 8.869721460381146E+10,      /* J = 19 */
(PID.TID 0000.0001)                 8.669423991218034E+10,      /* J = 20 */
(PID.TID 0000.0001)                 8.405076334249313E+10,      /* J = 21 */
(PID.TID 0000.0001)                 8.078707194826852E+10,      /* J = 22 */
(PID.TID 0000.0001)                 7.692477203447566E+10,      /* J = 23 */
(PID.TID 0000.0001)                 7.248418794208269E+10,      /* J = 24 */
(PID.TID 0000.0001)                 6.748097638954340E+10,      /* J = 25 */
(PID.TID 0000.0001)                 6.192151981164894E+10,      /* J = 26 */
(PID.TID 0000.0001)                 5.579613053300137E+10,      /* J = 27 */
(PID.TID 0000.0001)                 4.906782896008959E+10,      /* J = 28 */
(PID.TID 0000.0001)                 4.165099566747280E+10,      /* J = 29 */
(PID.TID 0000.0001)                 3.336273018972140E+10,      /* J = 30 */
(PID.TID 0000.0001)                 2.377787005983833E+10,      /* J = 31 */
(PID.TID 0000.0001)                 1.146542574196578E+10       /* J = 32 */
(PID.TID 0000.0001)     ;
(PID.TID 0000.0001) rAs =  /* rAs(:,1,:,1) ( units: m^2 ) */
(PID.TID 0000.0001)                 1.146542574196578E+10,      /* I =  1 */
(PID.TID 0000.0001)                 2.377787005983833E+10,      /* I =  2 */
(PID.TID 0000.0001)                 3.336273018972140E+10,      /* I =  3 */
(PID.TID 0000.0001)      . . .
(PID.TID 0000.0001)                 8.869721460381146E+10,      /* I = 46 */
(PID.TID 0000.0001)                 9.004272888354184E+10,      /* I = 47 */
(PID.TID 0000.0001)                 9.071865929421040E+10,      /* I = 48 */
(PID.TID 0000.0001)                 9.071865929421040E+10,      /* I = 49 */
(PID.TID 0000.0001)                 9.004272888354184E+10,      /* I = 50 */
(PID.TID 0000.0001)                 8.869721460381146E+10,      /* I = 51 */
(PID.TID 0000.0001)      . . .
(PID.TID 0000.0001)                 3.336273018972140E+10,      /* I = 94 */
(PID.TID 0000.0001)                 2.377787005983833E+10,      /* I = 95 */
(PID.TID 0000.0001)                 1.146542574196578E+10,      /* I = 96 */
(PID.TID 0000.0001)                 1.146542574196578E+10,      /* I = 97 */
(PID.TID 0000.0001)                 2.377787005983833E+10,      /* I = 98 */
(PID.TID 0000.0001)                 3.336273018972140E+10,      /* I = 99 */
(PID.TID 0000.0001)      . . .
(PID.TID 0000.0001)                 8.869721460381146E+10,      /* I =142 */
(PID.TID 0000.0001)                 9.004272888354184E+10,      /* I =143 */
(PID.TID 0000.0001)                 9.071865929421040E+10,      /* I =144 */
(PID.TID 0000.0001)                 9.071865929421040E+10,      /* I =145 */
(PID.TID 0000.0001)                 9.004272888354184E+10,      /* I =146 */
(PID.TID 0000.0001)                 8.869721460381146E+10,      /* I =147 */
(PID.TID 0000.0001)      . . .
(PID.TID 0000.0001)                 3.336273018972140E+10,      /* I =190 */
(PID.TID 0000.0001)                 2.377787005983833E+10,      /* I =191 */
(PID.TID 0000.0001)                 1.146542574196578E+10       /* I =192 */
(PID.TID 0000.0001)     ;
(PID.TID 0000.0001) rAs =  /* rAs(1,:,1,:) ( units: m^2 ) */
(PID.TID 0000.0001)                 1.146542574196578E+10,      /* J =  1 */
(PID.TID 0000.0001)                 1.953030837147821E+10,      /* J =  2 */
(PID.TID 0000.0001)                 2.933967873337320E+10,      /* J =  3 */
(PID.TID 0000.0001)                 3.796176706541101E+10,      /* J =  4 */
(PID.TID 0000.0001)                 4.567569462064098E+10,      /* J =  5 */
(PID.TID 0000.0001)                 5.267377164042021E+10,      /* J =  6 */
(PID.TID 0000.0001)                 5.905615583203223E+10,      /* J =  7 */
(PID.TID 0000.0001)                 6.487043381386549E+10,      /* J =  8 */
(PID.TID 0000.0001)                 7.013339442433482E+10,      /* J =  9 */
(PID.TID 0000.0001)                 7.484316069116351E+10,      /* J = 10 */
(PID.TID 0000.0001)                 7.898662143005907E+10,      /* J = 11 */
(PID.TID 0000.0001)                 8.254445101987663E+10,      /* J = 12 */
(PID.TID 0000.0001)                 8.549478360691351E+10,      /* J = 13 */
(PID.TID 0000.0001)                 8.781604517750543E+10,      /* J = 14 */
(PID.TID 0000.0001)                 8.948917519517891E+10,      /* J = 15 */
(PID.TID 0000.0001)                 9.049933392602551E+10,      /* J = 16 */
(PID.TID 0000.0001)                 9.083715262395341E+10,      /* J = 17 */
(PID.TID 0000.0001)                 9.049933392602551E+10,      /* J = 18 */
(PID.TID 0000.0001)                 8.948917519517891E+10,      /* J = 19 */
(PID.TID 0000.0001)                 8.781604517750543E+10,      /* J = 20 */
(PID.TID 0000.0001)                 8.549478360691351E+10,      /* J = 21 */
(PID.TID 0000.0001)                 8.254445101987663E+10,      /* J = 22 */
(PID.TID 0000.0001)                 7.898662143005907E+10,      /* J = 23 */
(PID.TID 0000.0001)                 7.484316069116351E+10,      /* J = 24 */
(PID.TID 0000.0001)                 7.013339442433482E+10,      /* J = 25 */
(PID.TID 0000.0001)                 6.487043381386549E+10,      /* J = 26 */
(PID.TID 0000.0001)                 5.905615583203223E+10,      /* J = 27 */
(PID.TID 0000.0001)                 5.267377164042021E+10,      /* J = 28 */
(PID.TID 0000.0001)                 4.567569462064098E+10,      /* J = 29 */
(PID.TID 0000.0001)                 3.796176706541101E+10,      /* J = 30 */
(PID.TID 0000.0001)                 2.933967873337320E+10,      /* J = 31 */
(PID.TID 0000.0001)                 1.953030837147821E+10       /* J = 32 */
(PID.TID 0000.0001)     ;
(PID.TID 0000.0001) globalArea = /* Integrated horizontal Area (m^2) */
(PID.TID 0000.0001)                 5.098642104278459E+14
(PID.TID 0000.0001)     ;
(PID.TID 0000.0001) hasWetCSCorners = /* Domain contains CS corners (True/False) */
(PID.TID 0000.0001)                   T
(PID.TID 0000.0001)     ;
(PID.TID 0000.0001) // =======================================================
(PID.TID 0000.0001) // End of Model config. summary
(PID.TID 0000.0001) // =======================================================
(PID.TID 0000.0001) 
(PID.TID 0000.0001) == Packages configuration : Check & print summary ==
(PID.TID 0000.0001) 
(PID.TID 0000.0001) ATM_PHYS_CHECK: #define ALLOW_ATM_PHYS
(PID.TID 0000.0001) atmPhys_addTendT = /* apply Atm-Phys tendency to Temperature Eq.*/
(PID.TID 0000.0001)                   T
(PID.TID 0000.0001)     ;
(PID.TID 0000.0001) atmPhys_addTendS = /* apply Atm-Phys tendency to Salinity Eq.*/
(PID.TID 0000.0001)                   T
(PID.TID 0000.0001)     ;
(PID.TID 0000.0001) atmPhys_addTendU = /* apply Atm-Phys tendency to U momentum Eq.*/
(PID.TID 0000.0001)                   T
(PID.TID 0000.0001)     ;
(PID.TID 0000.0001) atmPhys_addTendV = /* apply Atm-Phys tendency to V momentum Eq.*/
(PID.TID 0000.0001)                   T
(PID.TID 0000.0001)     ;
(PID.TID 0000.0001) atmPhys_stepSST = /* step forward SST field */
(PID.TID 0000.0001)                   T
(PID.TID 0000.0001)     ;
(PID.TID 0000.0001) atmPhys_dampUVfac = /* U,V danping coefficient (1/s) */
(PID.TID 0000.0001)    21 @  0.000000000000000E+00,             /* K =  1: 21 */
(PID.TID 0000.0001)                 3.935185185185185E-07,      /* K = 22 */
(PID.TID 0000.0001)                 4.212962962962963E-07,      /* K = 23 */
(PID.TID 0000.0001)                 4.513888888888889E-07,      /* K = 24 */
(PID.TID 0000.0001)                 4.849537037037037E-07,      /* K = 25 */
(PID.TID 0000.0001)                 5.219907407407407E-07,      /* K = 26 */
(PID.TID 0000.0001)                 5.509259259259259E-07,      /* K = 27 */
(PID.TID 0000.0001)                 5.787037037037037E-07,      /* K = 28 */
(PID.TID 0000.0001)                 6.087962962962963E-07,      /* K = 29 */
(PID.TID 0000.0001)                 6.435185185185185E-07,      /* K = 30 */
(PID.TID 0000.0001)                 6.805555555555555E-07,      /* K = 31 */
(PID.TID 0000.0001)                 7.233796296296296E-07,      /* K = 32 */
(PID.TID 0000.0001)                 7.719907407407406E-07,      /* K = 33 */
(PID.TID 0000.0001)                 8.263888888888889E-07,      /* K = 34 */
(PID.TID 0000.0001)                 8.900462962962962E-07,      /* K = 35 */
(PID.TID 0000.0001)                 9.641203703703704E-07,      /* K = 36 */
(PID.TID 0000.0001)                 1.157407407407407E-06,      /* K = 37 */
(PID.TID 0000.0001)                 2.893518518518518E-06,      /* K = 38 */
(PID.TID 0000.0001)                 6.502314814814815E-06,      /* K = 39 */
(PID.TID 0000.0001)                 7.233796296296297E-06       /* K = 40 */
(PID.TID 0000.0001)     ;
(PID.TID 0000.0001) atmPhys_sstFile = /* SST input file */
(PID.TID 0000.0001)               'SST_APE_plus2K.bin'
(PID.TID 0000.0001)     ;
(PID.TID 0000.0001) atmPhys_qFlxFile = /* Q-flux input file */
(PID.TID 0000.0001)               'Qflux_diagnosed.bin'
(PID.TID 0000.0001)     ;
(PID.TID 0000.0001) atmPhys_mxldFile = /* Mixed-Layer Depth inp. file */
(PID.TID 0000.0001)               ''
(PID.TID 0000.0001)     ;
(PID.TID 0000.0001) atmPhys_albedoFile = /* Albedo input file */
(PID.TID 0000.0001)               ''
(PID.TID 0000.0001)     ;
(PID.TID 0000.0001) 
(PID.TID 0000.0001) GAD_CHECK: #define ALLOW_GENERIC_ADVDIFF
(PID.TID 0000.0001) // =======================================================
(PID.TID 0000.0001) // Check Model config. (CONFIG_CHECK):
(PID.TID 0000.0001) // CONFIG_CHECK : Normal End
(PID.TID 0000.0001) // =======================================================
(PID.TID 0000.0001) 
(PID.TID 0000.0001)  MDS_READ_META: opening file: pickup.0004320000.meta
(PID.TID 0000.0001)  nRecords = 323 ; filePrec =  64 ; fileIter =   4320000
(PID.TID 0000.0001)     nDims =   2 , dims:
(PID.TID 0000.0001)    1: 192   1 192
(PID.TID 0000.0001)    2:  32   1  32
(PID.TID 0000.0001)     nFlds =  11 , nFl3D =   8 , fields:
(PID.TID 0000.0001)  >Uvel    < >Vvel    < >Theta   < >Salt    < >GuNm1   < >GvNm1   < >GtNm1   < >PhiHyd  < >EtaN    < >dEtaHdt < >EtaH    <
(PID.TID 0000.0001) missingVal=  1.00000000000000E+00 ; nTimRec =   1 , timeList:
(PID.TID 0000.0001)   7.776000000000E+08
(PID.TID 0000.0001) READ_MFLDS_3D_RL: read field: "Uvel    ", #   1 in fldList, rec=   1
(PID.TID 0000.0001)  MDS_READ_FIELD: opening global file: pickup.0004320000.data
(PID.TID 0000.0001) READ_MFLDS_3D_RL: read field: "Vvel    ", #   2 in fldList, rec=   2
(PID.TID 0000.0001)  MDS_READ_FIELD: opening global file: pickup.0004320000.data
(PID.TID 0000.0001) READ_MFLDS_3D_RL: read field: "Theta   ", #   3 in fldList, rec=   3
(PID.TID 0000.0001)  MDS_READ_FIELD: opening global file: pickup.0004320000.data
(PID.TID 0000.0001) READ_MFLDS_3D_RL: read field: "Salt    ", #   4 in fldList, rec=   4
(PID.TID 0000.0001)  MDS_READ_FIELD: opening global file: pickup.0004320000.data
(PID.TID 0000.0001) READ_MFLDS_3D_RL: read field: "GuNm1   ", #   5 in fldList, rec=   5
(PID.TID 0000.0001)  MDS_READ_FIELD: opening global file: pickup.0004320000.data
(PID.TID 0000.0001) READ_MFLDS_3D_RL: read field: "GvNm1   ", #   6 in fldList, rec=   6
(PID.TID 0000.0001)  MDS_READ_FIELD: opening global file: pickup.0004320000.data
(PID.TID 0000.0001) READ_MFLDS_3D_RL: read field: "GtNm1   ", #   7 in fldList, rec=   7
(PID.TID 0000.0001)  MDS_READ_FIELD: opening global file: pickup.0004320000.data
(PID.TID 0000.0001) READ_MFLDS_3D_RL: read field: "PhiHyd  ", #   8 in fldList, rec=   8
(PID.TID 0000.0001)  MDS_READ_FIELD: opening global file: pickup.0004320000.data
(PID.TID 0000.0001) READ_MFLDS_3D_RL: read field: "EtaN    ", #   9 in fldList, rec= 321
(PID.TID 0000.0001)  MDS_READ_FIELD: opening global file: pickup.0004320000.data
(PID.TID 0000.0001) READ_MFLDS_3D_RL: read field: "dEtaHdt ", #  10 in fldList, rec= 322
(PID.TID 0000.0001)  MDS_READ_FIELD: opening global file: pickup.0004320000.data
(PID.TID 0000.0001) READ_MFLDS_3D_RL: read field: "EtaH    ", #  11 in fldList, rec= 323
(PID.TID 0000.0001)  MDS_READ_FIELD: opening global file: pickup.0004320000.data
(PID.TID 0000.0001) READ_MFLDS_CHECK: - normal end ; reset MFLDS file-name: pickup.0004320000
(PID.TID 0000.0001)  write diagnostics summary to file ioUnit:      6
Iter.Nb:   4320000 ; Time(s):  7.7760000000000E+08
------------------------------------------------------------------------
2D/3D diagnostics: Number of lists:     5
------------------------------------------------------------------------
listId=    1 ; file name: surfDiag
 nFlds, nActive,       freq     &     phase        , nLev               
   16  |   16  |   2592000.000000         0.000000 |   1
 levels:   1
 diag# | name   |   ipt  |  iMate | kLev|   count |   mate.C|           
    23 |ETAN    |      1 |      0 |   1 |       0 |
    24 |ETANSQ  |      2 |      0 |   1 |       0 |
    25 |DETADT2 |      3 |      0 |   1 |       0 |
   199 |AtPhCnvP|      4 |      0 |   1 |       0 |
   200 |AtPhLscP|      5 |      0 |   1 |       0 |
   218 |AtPhCAPE|      6 |      0 |   1 |       0 |
   214 |AtPhSens|      7 |      0 |   1 |       0 |
   215 |AtPhEvap|      8 |      0 |   1 |       0 |
   216 |AtPhTauX|      9 |     10 |   1 |       0 |       0 |
   217 |AtPhTauY|     10 |      9 |   1 |       0 |       0 |
   192 |AtPh_SST|     11 |      0 |   1 |       0 |
   208 |AtPhNTSR|     12 |      0 |   1 |       0 |
   209 |AtPhOLR |     13 |      0 |   1 |       0 |
   211 |AtPhNSSR|     14 |      0 |   1 |       0 |
   212 |AtPhDSLR|     15 |      0 |   1 |       0 |
   213 |AtPhUSLR|     16 |      0 |   1 |       0 |
------------------------------------------------------------------------
listId=    2 ; file name: dynDiag
 nFlds, nActive,       freq     &     phase        , nLev               
   21  |   21  |   2592000.000000         0.000000 |  40
 levels:   1   2   3   4   5   6   7   8   9  10  11  12  13  14  15  16  17  18  19  20  21  22  23  24  25
 levels:  26  27  28  29  30  31  32  33  34  35  36  37  38  39  40
 diag# | name   |   ipt  |  iMate | kLev|   count |   mate.C|           
    29 |UVEL    |     17 |     57 |  40 |       0 |       0 |
    30 |VVEL    |     57 |     17 |  40 |       0 |       0 |
    31 |WVEL    |     97 |      0 |  40 |       0 |
    26 |THETA   |    137 |      0 |  40 |       0 |
    27 |SALT    |    177 |      0 |  40 |       0 |
    34 |UVELSQ  |    217 |    257 |  40 |       0 |       0 |
    35 |VVELSQ  |    257 |    217 |  40 |       0 |       0 |
    36 |WVELSQ  |    297 |      0 |  40 |       0 |
    32 |THETASQ |    337 |      0 |  40 |       0 |
    33 |SALTSQ  |    377 |      0 |  40 |       0 |
    43 |UVELMASS|    417 |    457 |  40 |       0 |       0 |
    44 |VVELMASS|    457 |    417 |  40 |       0 |       0 |
    37 |UE_VEL_C|    497 |    537 |  40 |       0 |       0 |
    38 |VN_VEL_C|    537 |    497 |  40 |       0 |       0 |
    39 |UV_VEL_C|    577 |    577 |  40 |       0 |       0 |
    41 |WU_VEL  |    617 |      0 |  40 |       0 |
    42 |WV_VEL  |    657 |      0 |  40 |       0 |
    54 |UVELTH  |    697 |    737 |  40 |       0 |       0 |
    55 |VVELTH  |    737 |    697 |  40 |       0 |       0 |
    56 |WVELTH  |    777 |      0 |  40 |       0 |
    28 |RELHUM  |    817 |      0 |  40 |       0 |
------------------------------------------------------------------------
listId=    3 ; file name: physDiag
 nFlds, nActive,       freq     &     phase        , nLev               
   11  |   11  |   2592000.000000         0.000000 |  40
 levels:   1   2   3   4   5   6   7   8   9  10  11  12  13  14  15  16  17  18  19  20  21  22  23  24  25
 levels:  26  27  28  29  30  31  32  33  34  35  36  37  38  39  40
 diag# | name   |   ipt  |  iMate | kLev|   count |   mate.C|           
   193 |AtPhdTdt|    857 |      0 |  40 |       0 |
   194 |AtPhdQdt|    897 |      0 |  40 |       0 |
   195 |AtPhdUdt|    937 |    977 |  40 |       0 |       0 |
   196 |AtPhdVdt|    977 |    937 |  40 |       0 |       0 |
   229 |AtPhDisH|   1017 |      0 |  40 |       0 |
   100 |HeatDiss|   1057 |      0 |  40 |       0 |
    99 |MoistCor|   1097 |      0 |  40 |       0 |
   191 |SHAP_dKE|   1137 |      0 |  40 |       0 |
   202 |AtPhdTrd|   1177 |      0 |  40 |       0 |
   201 |AtPhdTlc|   1217 |      0 |  40 |       0 |
   226 |AtPhdTcv|   1257 |      0 |  40 |       0 |
------------------------------------------------------------------------
listId=    4 ; file name: convDiag
 nFlds, nActive,       freq     &     phase        , nLev               
    8  |    8  |   2592000.000000         0.000000 |   1
 levels:   1
 diag# | name   |   ipt  |  iMate | kLev|   count |   mate.C|           
   199 |AtPhCnvP|     -4 |      0 |   1 |       0 |
   200 |AtPhLscP|     -5 |      0 |   1 |       0 |
   218 |AtPhCAPE|     -6 |      0 |   1 |       0 |
   219 |AtPhCnIn|   1297 |      0 |   1 |       0 |
   220 |AtPhKlzb|   1298 |      0 |   1 |       0 |
   221 |AtPhConv|   1299 |      0 |   1 |       0 |
   222 |AtPhRlxT|   1300 |      0 |   1 |       0 |
   223 |AtPhRlxQ|   1301 |      0 |   1 |       0 |
------------------------------------------------------------------------
listId=    5 ; file name: radDiag
 nFlds, nActive,       freq     &     phase        , nLev               
    4  |    4  |   2592000.000000         0.000000 |  41
 levels:   1   2   3   4   5   6   7   8   9  10  11  12  13  14  15  16  17  18  19  20  21  22  23  24  25
 levels:  26  27  28  29  30  31  32  33  34  35  36  37  38  39  40  41
 diag# | name   |   ipt  |  iMate | kLev|   count |   mate.C|           
   203 |AtPhNSR |   1302 |      0 |  41 |       0 |
   204 |AtPhNLR |   1343 |      0 |  41 |       0 |
   205 |AtPhDSR |   1384 |      0 |  41 |       0 |
   206 |AtPhDLR |   1425 |      0 |  41 |       0 |
------------------------------------------------------------------------
Global & Regional Statistics diagnostics: Number of lists:     3
------------------------------------------------------------------------
listId=   1 ; file name: dynStDiag
 nFlds, nActive,       freq     &     phase        |                    
   11  |   11  |     21600.000000         0.000000 |
 Regions:   0
 diag# | name   |   ipt  |  iMate |    Volume   |   mate-Vol. |         
    23 |ETAN    |      1 |      0 | 0.00000E+00 |
    26 |THETA   |      2 |      0 | 0.00000E+00 |
    27 |SALT    |     42 |      0 | 0.00000E+00 |
    28 |RELHUM  |     82 |      0 | 0.00000E+00 |
    37 |UE_VEL_C|    122 |      0 | 0.00000E+00 |
    38 |VN_VEL_C|    162 |      0 | 0.00000E+00 |
    31 |WVEL    |    202 |      0 | 0.00000E+00 |
   193 |AtPhdTdt|    242 |      0 | 0.00000E+00 |
   194 |AtPhdQdt|    282 |      0 | 0.00000E+00 |
   195 |AtPhdUdt|    322 |      0 | 0.00000E+00 |
   196 |AtPhdVdt|    362 |      0 | 0.00000E+00 |
------------------------------------------------------------------------
listId=   2 ; file name: phyStDiag
 nFlds, nActive,       freq     &     phase        |                    
   11  |   11  |     21600.000000         0.000000 |
 Regions:   0
 diag# | name   |   ipt  |  iMate |    Volume   |   mate-Vol. |         
   227 |AtPhdtTg|    402 |      0 | 0.00000E+00 |
   228 |AtPhdtQg|    442 |      0 | 0.00000E+00 |
   197 |AtPhDifT|    482 |      0 | 0.00000E+00 |
   198 |AtPhDifM|    522 |      0 | 0.00000E+00 |
   229 |AtPhDisH|    562 |      0 | 0.00000E+00 |
   100 |HeatDiss|    602 |      0 | 0.00000E+00 |
    99 |MoistCor|    642 |      0 | 0.00000E+00 |
   191 |SHAP_dKE|    682 |      0 | 0.00000E+00 |
   202 |AtPhdTrd|    722 |      0 | 0.00000E+00 |
   201 |AtPhdTlc|    762 |      0 | 0.00000E+00 |
   226 |AtPhdTcv|    802 |      0 | 0.00000E+00 |
------------------------------------------------------------------------
listId=   3 ; file name: flxStDiag
 nFlds, nActive,       freq     &     phase        |                    
   17  |   17  |     21600.000000         0.000000 |
 Regions:   0
 diag# | name   |   ipt  |  iMate |    Volume   |   mate-Vol. |         
   214 |AtPhSens|    842 |      0 | 0.00000E+00 |
   215 |AtPhEvap|    843 |      0 | 0.00000E+00 |
   216 |AtPhTauX|    844 |      0 | 0.00000E+00 |
   217 |AtPhTauY|    845 |      0 | 0.00000E+00 |
   199 |AtPhCnvP|    846 |      0 | 0.00000E+00 |
   200 |AtPhLscP|    847 |      0 | 0.00000E+00 |
   218 |AtPhCAPE|    848 |      0 | 0.00000E+00 |
   192 |AtPh_SST|    849 |      0 | 0.00000E+00 |
   208 |AtPhNTSR|    850 |      0 | 0.00000E+00 |
   209 |AtPhOLR |    851 |      0 | 0.00000E+00 |
   211 |AtPhNSSR|    852 |      0 | 0.00000E+00 |
   212 |AtPhDSLR|    853 |      0 | 0.00000E+00 |
   213 |AtPhUSLR|    854 |      0 | 0.00000E+00 |
   203 |AtPhNSR |    855 |      0 | 0.00000E+00 |
   204 |AtPhNLR |    896 |      0 | 0.00000E+00 |
   205 |AtPhDSR |    937 |      0 | 0.00000E+00 |
   206 |AtPhDLR |    978 |      0 | 0.00000E+00 |
------------------------------------------------------------------------
(PID.TID 0000.0001)  MDS_READ_FIELD: opening global file: SST_APE_plus2K.bin
(PID.TID 0000.0001)  MDS_READ_META: opening file: pickup_atmPhys.0004320000.meta
(PID.TID 0000.0001)  nRecords =   1 ; filePrec =  64 ; fileIter =   4320000
(PID.TID 0000.0001)     nDims =   2 , dims:
(PID.TID 0000.0001)    1: 192   1 192
(PID.TID 0000.0001)    2:  32   1  32
(PID.TID 0000.0001)     nFlds =   1 , nFl3D =   0 , fields:
(PID.TID 0000.0001)  >AtPh_SST<
(PID.TID 0000.0001) missingVal=  1.00000000000000E+00 ; nTimRec =   1 , timeList:
(PID.TID 0000.0001)   7.776000000000E+08
(PID.TID 0000.0001) READ_MFLDS_3D_RL: read field: "AtPh_SST", #   1 in fldList, rec=   1
(PID.TID 0000.0001)  MDS_READ_FIELD: opening global file: pickup_atmPhys.0004320000.data
(PID.TID 0000.0001) READ_MFLDS_CHECK: - normal end ; reset MFLDS file-name: pickup_atmPhys.0004320000
(PID.TID 0000.0001) // =======================================================
(PID.TID 0000.0001) // Model current state
(PID.TID 0000.0001) // =======================================================
(PID.TID 0000.0001) 
(PID.TID 0000.0001) // =======================================================
(PID.TID 0000.0001) // Begin MONITOR dynamic field statistics
(PID.TID 0000.0001) // =======================================================
(PID.TID 0000.0001) %MON time_tsnumber                =               4320000
(PID.TID 0000.0001) %MON time_secondsf                =   7.7760000000000E+08
(PID.TID 0000.0001) %MON dynstat_eta_max              =   2.8975274901562E+03
(PID.TID 0000.0001) %MON dynstat_eta_min              =  -1.1309110292622E+03
(PID.TID 0000.0001) %MON dynstat_eta_mean             =   1.2411775273832E-12
(PID.TID 0000.0001) %MON dynstat_eta_sd               =   7.4200521142689E+02
(PID.TID 0000.0001) %MON dynstat_eta_del2             =   9.4733482522853E-01
(PID.TID 0000.0001) %MON dynstat_uvel_max             =   1.4498543641329E+02
(PID.TID 0000.0001) %MON dynstat_uvel_min             =  -1.1031490479757E+02
(PID.TID 0000.0001) %MON dynstat_uvel_mean            =   3.4434493462794E+00
(PID.TID 0000.0001) %MON dynstat_uvel_sd              =   1.1512053940998E+01
(PID.TID 0000.0001) %MON dynstat_uvel_del2            =   1.4678474989053E-02
(PID.TID 0000.0001) %MON dynstat_vvel_max             =   1.2561064853105E+02
(PID.TID 0000.0001) %MON dynstat_vvel_min             =  -1.1736904696789E+02
(PID.TID 0000.0001) %MON dynstat_vvel_mean            =   3.4695108964869E+00
(PID.TID 0000.0001) %MON dynstat_vvel_sd              =   1.1138688150230E+01
(PID.TID 0000.0001) %MON dynstat_vvel_del2            =   1.4334326412801E-02
(PID.TID 0000.0001) %MON dynstat_wvel_max             =   6.6278618535688E-01
(PID.TID 0000.0001) %MON dynstat_wvel_min             =  -6.9768959867301E-01
(PID.TID 0000.0001) %MON dynstat_wvel_mean            =   3.6775416627076E-19
(PID.TID 0000.0001) %MON dynstat_wvel_sd              =   5.2015275722950E-02
(PID.TID 0000.0001) %MON dynstat_wvel_del2            =   1.4231371073002E-04
(PID.TID 0000.0001) %MON dynstat_theta_max            =   6.2940686011378E+03
(PID.TID 0000.0001) %MON dynstat_theta_min            =   2.6945507615561E+02
(PID.TID 0000.0001) %MON dynstat_theta_mean           =   3.4931401100648E+02
(PID.TID 0000.0001) %MON dynstat_theta_sd             =   1.3229931883560E+02
(PID.TID 0000.0001) %MON dynstat_theta_del2           =   7.9061376676319E-02
(PID.TID 0000.0001) %MON dynstat_salt_max             =   2.0165325522114E-02
(PID.TID 0000.0001) %MON dynstat_salt_min             =   3.8470966997655E-05
(PID.TID 0000.0001) %MON dynstat_salt_mean            =   2.9914559960802E-03
(PID.TID 0000.0001) %MON dynstat_salt_sd              =   3.9506144999600E-03
(PID.TID 0000.0001) %MON dynstat_salt_del2            =   1.3460524856534E-06
(PID.TID 0000.0001) %MON trAdv_CFL_u_max              =   0.0000000000000E+00
(PID.TID 0000.0001) %MON trAdv_CFL_v_max              =   0.0000000000000E+00
(PID.TID 0000.0001) %MON trAdv_CFL_w_max              =   0.0000000000000E+00
(PID.TID 0000.0001) %MON advcfl_uvel_max              =   1.6343300938359E-01
(PID.TID 0000.0001) %MON advcfl_vvel_max              =   1.5752784465978E-01
(PID.TID 0000.0001) %MON advcfl_wvel_max              =   5.9615635137246E-02
(PID.TID 0000.0001) %MON advcfl_W_hf_max              =   7.7552847631578E-02
(PID.TID 0000.0001) %MON am_eta_mean                  =  -3.8367517116864E+10
(PID.TID 0000.0001) %MON am_uZo_mean                  =   5.0751286212821E+11
(PID.TID 0000.0001) %MON am_tot_mean                  =   4.6914534501135E+11
(PID.TID 0000.0001) %MON pe_b_mean                    =   2.2733721827687E+00
(PID.TID 0000.0001) %MON ke_max                       =   1.2653188713533E+04
(PID.TID 0000.0001) %MON ke_mean                      =   1.4024643987212E+02
(PID.TID 0000.0001) %MON ke_vol                       =   5.0985911178574E+19
(PID.TID 0000.0001) %MON vort_r_min                   =  -6.4419340452731E-04
(PID.TID 0000.0001) %MON vort_r_max                   =   5.9743346775587E-04
(PID.TID 0000.0001) %MON vort_a_mean                  =  -1.9856175469414E-19
(PID.TID 0000.0001) %MON vort_a_sd                    =   8.8583672731492E-05
(PID.TID 0000.0001) %MON vort_p_mean                  =  -1.9856147455060E-19
(PID.TID 0000.0001) %MON vort_p_sd                    =   8.8432572955716E-05
(PID.TID 0000.0001) %MON surfExpan_theta_mean         =  -1.2918025192375E-04
(PID.TID 0000.0001) %MON surfExpan_salt_mean          =  -8.5354181119397E-08
(PID.TID 0000.0001) %MON surfExpan_Heat_mean          =  -8.7448392240249E-03
(PID.TID 0000.0001) %MON En_Budget_T2PE_mean          =   1.2359161841057E+00
(PID.TID 0000.0001) // =======================================================
(PID.TID 0000.0001) // End MONITOR dynamic field statistics
(PID.TID 0000.0001) // =======================================================
(PID.TID 0000.0001) SURFACE_FLUX_INIT: opening data.atm_gray
(PID.TID 0000.0001)  OPEN_COPY_DATA_FILE: opening file data.atm_gray
(PID.TID 0000.0001) // =======================================================
(PID.TID 0000.0001) // Parameter file "data.atm_gray"
(PID.TID 0000.0001) // =======================================================
(PID.TID 0000.0001) >
(PID.TID 0000.0001) > &atmosphere_nml
(PID.TID 0000.0001) >    turb = .TRUE.,
(PID.TID 0000.0001) >    ldry_convection = .false.,
(PID.TID 0000.0001) >    lwet_convection = .TRUE.,
(PID.TID 0000.0001) >    do_virtual = .false.,
(PID.TID 0000.0001) >    two_stream = .true.,
(PID.TID 0000.0001) >    mixed_layer_bc = .false.,
(PID.TID 0000.0001) >    roughness_heat = 0.05,
(PID.TID 0000.0001) >    roughness_moist = 0.05,
(PID.TID 0000.0001) >    roughness_mom = 0.05,
(PID.TID 0000.0001) > /
(PID.TID 0000.0001) >
(PID.TID 0000.0001) > &radiation_nml
(PID.TID 0000.0001) ># solar_constant= 1365.,
(PID.TID 0000.0001) ># del_sol=1.,
(PID.TID 0000.0001) ># ir_tau_eq=
(PID.TID 0000.0001) ># ir_tau_pole=
(PID.TID 0000.0001) ># atm_abs = 0.,
(PID.TID 0000.0001) ># sw_diff=
(PID.TID 0000.0001) ># linear_tau=
(PID.TID 0000.0001) ># del_sw=
(PID.TID 0000.0001) ># albedo_value=0.38,
(PID.TID 0000.0001) ># window=
(PID.TID 0000.0001) >  select_incSW = 1,
(PID.TID 0000.0001) >  albedo_value=0.4,
(PID.TID 0000.0001) >  solar_exponent=0.,
(PID.TID 0000.0001) >  wv_exponent = -1.,
(PID.TID 0000.0001) >  ozone_in_SW = 1,
(PID.TID 0000.0001) >  two_stream_SW = 1,
(PID.TID 0000.0001) > /
(PID.TID 0000.0001) >
(PID.TID 0000.0001) > &lscale_cond_nml
(PID.TID 0000.0001) ># hc =
(PID.TID 0000.0001) ># do_evap=
(PID.TID 0000.0001) > /
(PID.TID 0000.0001) >
(PID.TID 0000.0001) > &dargan_bettsmiller_nml
(PID.TID 0000.0001) >#-- default:
(PID.TID 0000.0001) >#   tau_bm = 7200.,
(PID.TID 0000.0001) >#   rhbm   = 0.8,
(PID.TID 0000.0001) >#   do_virtual   = .FALSE.,
(PID.TID 0000.0001) >#   do_shallower = .FALSE.,
(PID.TID 0000.0001) >#   do_changeqref= .FALSE.,
(PID.TID 0000.0001) >#   do_envsat    = .FALSE.,
(PID.TID 0000.0001) >#   do_taucape   = .FALSE.,
(PID.TID 0000.0001) >#     capetaubm  = 900.,
(PID.TID 0000.0001) >#     tau_min    = 2400.,
(PID.TID 0000.0001) >#   do_bm_shift  = .FALSE.,
(PID.TID 0000.0001) >#-- POG choice:
(PID.TID 0000.0001) >#  rhbm = 0.7,
(PID.TID 0000.0001) >   do_virtual= .TRUE.,
(PID.TID 0000.0001) >   do_shallower= .TRUE.,
(PID.TID 0000.0001) > /
(PID.TID 0000.0001) >
(PID.TID 0000.0001) > &surface_flux_nml
(PID.TID 0000.0001) > /
(PID.TID 0000.0001) >
(PID.TID 0000.0001) > &vert_turb_driver_nml
(PID.TID 0000.0001) >#  do_shallow_conv, do_mellor_yamada,
(PID.TID 0000.0001) >#  gust_scheme, constant_gust, use_tau,
(PID.TID 0000.0001) >#  do_molecular_diffusion
(PID.TID 0000.0001) >  do_mellor_yamada=.FALSE.,
(PID.TID 0000.0001) > /
(PID.TID 0000.0001) >
(PID.TID 0000.0001) > &diffusivity_nml
(PID.TID 0000.0001) >#  fixed_depth, depth_0, frac_inner,
(PID.TID 0000.0001) >#  rich_crit_pbl, entr_ratio, parcel_buoy,
(PID.TID 0000.0001) >#  znom, free_atm_diff, free_atm_skyhi_diff,
(PID.TID 0000.0001) >#  pbl_mcm, rich_crit_diff, mix_len, rich_prandtl,
(PID.TID 0000.0001) >#  background_m, background_t, ampns, ampns_max,
(PID.TID 0000.0001) >#  do_virtual_non_mcm
(PID.TID 0000.0001) > /
(PID.TID 0000.0001) >
(PID.TID 0000.0001) > &monin_obukhov_nml
(PID.TID 0000.0001) > /
(PID.TID 0000.0001) >
(PID.TID 0000.0001) > &my25_turb_nml
(PID.TID 0000.0001) > /
(PID.TID 0000.0001) >
(PID.TID 0000.0001) > &shallow_conv_nml
(PID.TID 0000.0001) > /
(PID.TID 0000.0001) >
(PID.TID 0000.0001) > &mixed_layer_nml
(PID.TID 0000.0001) ># evaporation, qflux_amp, depth, qflux_width
(PID.TID 0000.0001) >  depth=50.,
(PID.TID 0000.0001) > /
(PID.TID 0000.0001) >
(PID.TID 0000.0001) 
(PID.TID 0000.0001) SURFACE_FLUX_INIT: finished reading data.atm_gray
(PID.TID 0000.0001) MONIN_OBUKHOV_INIT: opening data.atm_gray
(PID.TID 0000.0001)  OPEN_COPY_DATA_FILE: opening file data.atm_gray
(PID.TID 0000.0001) // =======================================================
(PID.TID 0000.0001) // Parameter file "data.atm_gray"
(PID.TID 0000.0001) // =======================================================
(PID.TID 0000.0001) >
(PID.TID 0000.0001) > &atmosphere_nml
(PID.TID 0000.0001) >    turb = .TRUE.,
(PID.TID 0000.0001) >    ldry_convection = .false.,
(PID.TID 0000.0001) >    lwet_convection = .TRUE.,
(PID.TID 0000.0001) >    do_virtual = .false.,
(PID.TID 0000.0001) >    two_stream = .true.,
(PID.TID 0000.0001) >    mixed_layer_bc = .false.,
(PID.TID 0000.0001) >    roughness_heat = 0.05,
(PID.TID 0000.0001) >    roughness_moist = 0.05,
(PID.TID 0000.0001) >    roughness_mom = 0.05,
(PID.TID 0000.0001) > /
(PID.TID 0000.0001) >
(PID.TID 0000.0001) > &radiation_nml
(PID.TID 0000.0001) ># solar_constant= 1365.,
(PID.TID 0000.0001) ># del_sol=1.,
(PID.TID 0000.0001) ># ir_tau_eq=
(PID.TID 0000.0001) ># ir_tau_pole=
(PID.TID 0000.0001) ># atm_abs = 0.,
(PID.TID 0000.0001) ># sw_diff=
(PID.TID 0000.0001) ># linear_tau=
(PID.TID 0000.0001) ># del_sw=
(PID.TID 0000.0001) ># albedo_value=0.38,
(PID.TID 0000.0001) ># window=
(PID.TID 0000.0001) >  select_incSW = 1,
(PID.TID 0000.0001) >  albedo_value=0.4,
(PID.TID 0000.0001) >  solar_exponent=0.,
(PID.TID 0000.0001) >  wv_exponent = -1.,
(PID.TID 0000.0001) >  ozone_in_SW = 1,
(PID.TID 0000.0001) >  two_stream_SW = 1,
(PID.TID 0000.0001) > /
(PID.TID 0000.0001) >
(PID.TID 0000.0001) > &lscale_cond_nml
(PID.TID 0000.0001) ># hc =
(PID.TID 0000.0001) ># do_evap=
(PID.TID 0000.0001) > /
(PID.TID 0000.0001) >
(PID.TID 0000.0001) > &dargan_bettsmiller_nml
(PID.TID 0000.0001) >#-- default:
(PID.TID 0000.0001) >#   tau_bm = 7200.,
(PID.TID 0000.0001) >#   rhbm   = 0.8,
(PID.TID 0000.0001) >#   do_virtual   = .FALSE.,
(PID.TID 0000.0001) >#   do_shallower = .FALSE.,
(PID.TID 0000.0001) >#   do_changeqref= .FALSE.,
(PID.TID 0000.0001) >#   do_envsat    = .FALSE.,
(PID.TID 0000.0001) >#   do_taucape   = .FALSE.,
(PID.TID 0000.0001) >#     capetaubm  = 900.,
(PID.TID 0000.0001) >#     tau_min    = 2400.,
(PID.TID 0000.0001) >#   do_bm_shift  = .FALSE.,
(PID.TID 0000.0001) >#-- POG choice:
(PID.TID 0000.0001) >#  rhbm = 0.7,
(PID.TID 0000.0001) >   do_virtual= .TRUE.,
(PID.TID 0000.0001) >   do_shallower= .TRUE.,
(PID.TID 0000.0001) > /
(PID.TID 0000.0001) >
(PID.TID 0000.0001) > &surface_flux_nml
(PID.TID 0000.0001) > /
(PID.TID 0000.0001) >
(PID.TID 0000.0001) > &vert_turb_driver_nml
(PID.TID 0000.0001) >#  do_shallow_conv, do_mellor_yamada,
(PID.TID 0000.0001) >#  gust_scheme, constant_gust, use_tau,
(PID.TID 0000.0001) >#  do_molecular_diffusion
(PID.TID 0000.0001) >  do_mellor_yamada=.FALSE.,
(PID.TID 0000.0001) > /
(PID.TID 0000.0001) >
(PID.TID 0000.0001) > &diffusivity_nml
(PID.TID 0000.0001) >#  fixed_depth, depth_0, frac_inner,
(PID.TID 0000.0001) >#  rich_crit_pbl, entr_ratio, parcel_buoy,
(PID.TID 0000.0001) >#  znom, free_atm_diff, free_atm_skyhi_diff,
(PID.TID 0000.0001) >#  pbl_mcm, rich_crit_diff, mix_len, rich_prandtl,
(PID.TID 0000.0001) >#  background_m, background_t, ampns, ampns_max,
(PID.TID 0000.0001) >#  do_virtual_non_mcm
(PID.TID 0000.0001) > /
(PID.TID 0000.0001) >
(PID.TID 0000.0001) > &monin_obukhov_nml
(PID.TID 0000.0001) > /
(PID.TID 0000.0001) >
(PID.TID 0000.0001) > &my25_turb_nml
(PID.TID 0000.0001) > /
(PID.TID 0000.0001) >
(PID.TID 0000.0001) > &shallow_conv_nml
(PID.TID 0000.0001) > /
(PID.TID 0000.0001) >
(PID.TID 0000.0001) > &mixed_layer_nml
(PID.TID 0000.0001) ># evaporation, qflux_amp, depth, qflux_width
(PID.TID 0000.0001) >  depth=50.,
(PID.TID 0000.0001) > /
(PID.TID 0000.0001) >
(PID.TID 0000.0001) 
(PID.TID 0000.0001) MONIN_OBUKHOV_INIT: finished reading data.atm_gray
(PID.TID 0000.0001) DIFFUSIVITY_INIT: opening data.atm_gray
(PID.TID 0000.0001)  OPEN_COPY_DATA_FILE: opening file data.atm_gray
(PID.TID 0000.0001) // =======================================================
(PID.TID 0000.0001) // Parameter file "data.atm_gray"
(PID.TID 0000.0001) // =======================================================
(PID.TID 0000.0001) >
(PID.TID 0000.0001) > &atmosphere_nml
(PID.TID 0000.0001) >    turb = .TRUE.,
(PID.TID 0000.0001) >    ldry_convection = .false.,
(PID.TID 0000.0001) >    lwet_convection = .TRUE.,
(PID.TID 0000.0001) >    do_virtual = .false.,
(PID.TID 0000.0001) >    two_stream = .true.,
(PID.TID 0000.0001) >    mixed_layer_bc = .false.,
(PID.TID 0000.0001) >    roughness_heat = 0.05,
(PID.TID 0000.0001) >    roughness_moist = 0.05,
(PID.TID 0000.0001) >    roughness_mom = 0.05,
(PID.TID 0000.0001) > /
(PID.TID 0000.0001) >
(PID.TID 0000.0001) > &radiation_nml
(PID.TID 0000.0001) ># solar_constant= 1365.,
(PID.TID 0000.0001) ># del_sol=1.,
(PID.TID 0000.0001) ># ir_tau_eq=
(PID.TID 0000.0001) ># ir_tau_pole=
(PID.TID 0000.0001) ># atm_abs = 0.,
(PID.TID 0000.0001) ># sw_diff=
(PID.TID 0000.0001) ># linear_tau=
(PID.TID 0000.0001) ># del_sw=
(PID.TID 0000.0001) ># albedo_value=0.38,
(PID.TID 0000.0001) ># window=
(PID.TID 0000.0001) >  select_incSW = 1,
(PID.TID 0000.0001) >  albedo_value=0.4,
(PID.TID 0000.0001) >  solar_exponent=0.,
(PID.TID 0000.0001) >  wv_exponent = -1.,
(PID.TID 0000.0001) >  ozone_in_SW = 1,
(PID.TID 0000.0001) >  two_stream_SW = 1,
(PID.TID 0000.0001) > /
(PID.TID 0000.0001) >
(PID.TID 0000.0001) > &lscale_cond_nml
(PID.TID 0000.0001) ># hc =
(PID.TID 0000.0001) ># do_evap=
(PID.TID 0000.0001) > /
(PID.TID 0000.0001) >
(PID.TID 0000.0001) > &dargan_bettsmiller_nml
(PID.TID 0000.0001) >#-- default:
(PID.TID 0000.0001) >#   tau_bm = 7200.,
(PID.TID 0000.0001) >#   rhbm   = 0.8,
(PID.TID 0000.0001) >#   do_virtual   = .FALSE.,
(PID.TID 0000.0001) >#   do_shallower = .FALSE.,
(PID.TID 0000.0001) >#   do_changeqref= .FALSE.,
(PID.TID 0000.0001) >#   do_envsat    = .FALSE.,
(PID.TID 0000.0001) >#   do_taucape   = .FALSE.,
(PID.TID 0000.0001) >#     capetaubm  = 900.,
(PID.TID 0000.0001) >#     tau_min    = 2400.,
(PID.TID 0000.0001) >#   do_bm_shift  = .FALSE.,
(PID.TID 0000.0001) >#-- POG choice:
(PID.TID 0000.0001) >#  rhbm = 0.7,
(PID.TID 0000.0001) >   do_virtual= .TRUE.,
(PID.TID 0000.0001) >   do_shallower= .TRUE.,
(PID.TID 0000.0001) > /
(PID.TID 0000.0001) >
(PID.TID 0000.0001) > &surface_flux_nml
(PID.TID 0000.0001) > /
(PID.TID 0000.0001) >
(PID.TID 0000.0001) > &vert_turb_driver_nml
(PID.TID 0000.0001) >#  do_shallow_conv, do_mellor_yamada,
(PID.TID 0000.0001) >#  gust_scheme, constant_gust, use_tau,
(PID.TID 0000.0001) >#  do_molecular_diffusion
(PID.TID 0000.0001) >  do_mellor_yamada=.FALSE.,
(PID.TID 0000.0001) > /
(PID.TID 0000.0001) >
(PID.TID 0000.0001) > &diffusivity_nml
(PID.TID 0000.0001) >#  fixed_depth, depth_0, frac_inner,
(PID.TID 0000.0001) >#  rich_crit_pbl, entr_ratio, parcel_buoy,
(PID.TID 0000.0001) >#  znom, free_atm_diff, free_atm_skyhi_diff,
(PID.TID 0000.0001) >#  pbl_mcm, rich_crit_diff, mix_len, rich_prandtl,
(PID.TID 0000.0001) >#  background_m, background_t, ampns, ampns_max,
(PID.TID 0000.0001) >#  do_virtual_non_mcm
(PID.TID 0000.0001) > /
(PID.TID 0000.0001) >
(PID.TID 0000.0001) > &monin_obukhov_nml
(PID.TID 0000.0001) > /
(PID.TID 0000.0001) >
(PID.TID 0000.0001) > &my25_turb_nml
(PID.TID 0000.0001) > /
(PID.TID 0000.0001) >
(PID.TID 0000.0001) > &shallow_conv_nml
(PID.TID 0000.0001) > /
(PID.TID 0000.0001) >
(PID.TID 0000.0001) > &mixed_layer_nml
(PID.TID 0000.0001) ># evaporation, qflux_amp, depth, qflux_width
(PID.TID 0000.0001) >  depth=50.,
(PID.TID 0000.0001) > /
(PID.TID 0000.0001) >
(PID.TID 0000.0001) 
(PID.TID 0000.0001) DIFFUSIVITY_INIT: finished reading data.atm_gray
(PID.TID 0000.0001) SOLVE_FOR_PRESSURE: putPmEinXvector =    F
 cg2d: Sum(rhs),rhsMax =  -9.46223735809326E-07  4.15577561867472E+05
(PID.TID 0000.0001)      cg2d_init_res =   1.90773779754356E+03
(PID.TID 0000.0001)      cg2d_iters(min,last) =      -1       5
(PID.TID 0000.0001)      cg2d_last_res =   6.25409641839242E-11
(PID.TID 0000.0001) // =======================================================
(PID.TID 0000.0001) // Begin MONITOR dynamic field statistics
(PID.TID 0000.0001) // =======================================================
(PID.TID 0000.0001) %MON time_tsnumber                =               4320001
(PID.TID 0000.0001) %MON time_secondsf                =   7.7760018000000E+08
(PID.TID 0000.0001) %MON dynstat_eta_max              =   2.8975225832294E+03
(PID.TID 0000.0001) %MON dynstat_eta_min              =  -1.1307851962403E+03
(PID.TID 0000.0001) %MON dynstat_eta_mean             =   8.1941817341801E-13
(PID.TID 0000.0001) %MON dynstat_eta_sd               =   7.4202051347909E+02
(PID.TID 0000.0001) %MON dynstat_eta_del2             =   9.4731107050954E-01
(PID.TID 0000.0001) %MON dynstat_uvel_max             =   1.4581564487822E+02
(PID.TID 0000.0001) %MON dynstat_uvel_min             =  -1.1043231941128E+02
(PID.TID 0000.0001) %MON dynstat_uvel_mean            =   3.4434462654240E+00
(PID.TID 0000.0001) %MON dynstat_uvel_sd              =   1.1511984695225E+01
(PID.TID 0000.0001) %MON dynstat_uvel_del2            =   1.4678014114841E-02
(PID.TID 0000.0001) %MON dynstat_vvel_max             =   1.2559155387270E+02
(PID.TID 0000.0001) %MON dynstat_vvel_min             =  -1.1742512843528E+02
(PID.TID 0000.0001) %MON dynstat_vvel_mean            =   3.4695102282964E+00
(PID.TID 0000.0001) %MON dynstat_vvel_sd              =   1.1138664959661E+01
(PID.TID 0000.0001) %MON dynstat_vvel_del2            =   1.4334233711586E-02
(PID.TID 0000.0001) %MON dynstat_wvel_max             =   6.6113547880380E-01
(PID.TID 0000.0001) %MON dynstat_wvel_min             =  -6.9693208965974E-01
(PID.TID 0000.0001) %MON dynstat_wvel_mean            =  -1.9221284423752E-18
(PID.TID 0000.0001) %MON dynstat_wvel_sd              =   5.2013925251332E-02
(PID.TID 0000.0001) %MON dynstat_wvel_del2            =   1.4230765251958E-04
(PID.TID 0000.0001) %MON dynstat_theta_max            =   6.2897047489057E+03
(PID.TID 0000.0001) %MON dynstat_theta_min            =   2.6945509808699E+02
(PID.TID 0000.0001) %MON dynstat_theta_mean           =   3.4931398639529E+02
(PID.TID 0000.0001) %MON dynstat_theta_sd             =   1.3229942236806E+02
(PID.TID 0000.0001) %MON dynstat_theta_del2           =   7.9076331987461E-02
(PID.TID 0000.0001) %MON dynstat_salt_max             =   2.0134845204820E-02
(PID.TID 0000.0001) %MON dynstat_salt_min             =   3.8470969443602E-05
(PID.TID 0000.0001) %MON dynstat_salt_mean            =   2.9914607844282E-03
(PID.TID 0000.0001) %MON dynstat_salt_sd              =   3.9506153131106E-03
(PID.TID 0000.0001) %MON dynstat_salt_del2            =   1.3460622703113E-06
(PID.TID 0000.0001) %MON trAdv_CFL_u_max              =   1.8707773576822E-01
(PID.TID 0000.0001) %MON trAdv_CFL_v_max              =   1.6050779898309E-01
(PID.TID 0000.0001) %MON trAdv_CFL_w_max              =   9.1912849219995E-02
(PID.TID 0000.0001) %MON advcfl_uvel_max              =   1.6332055291776E-01
(PID.TID 0000.0001) %MON advcfl_vvel_max              =   1.5732707343306E-01
(PID.TID 0000.0001) %MON advcfl_wvel_max              =   5.9677627937370E-02
(PID.TID 0000.0001) %MON advcfl_W_hf_max              =   7.7820905785361E-02
(PID.TID 0000.0001) %MON am_eta_mean                  =  -3.8366949018543E+10
(PID.TID 0000.0001) %MON am_uZo_mean                  =   5.0751118598512E+11
(PID.TID 0000.0001) %MON am_tot_mean                  =   4.6914423696658E+11
(PID.TID 0000.0001) %MON pe_b_mean                    =   2.2734659492760E+00
(PID.TID 0000.0001) %MON ke_max                       =   1.2710229816564E+04
(PID.TID 0000.0001) %MON ke_mean                      =   1.4024537147630E+02
(PID.TID 0000.0001) %MON ke_vol                       =   5.0985911178574E+19
(PID.TID 0000.0001) %MON vort_r_min                   =  -6.4302348505325E-04
(PID.TID 0000.0001) %MON vort_r_max                   =   5.9912277265650E-04
(PID.TID 0000.0001) %MON vort_a_mean                  =  -4.9027593751640E-20
(PID.TID 0000.0001) %MON vort_a_sd                    =   8.8583608606041E-05
(PID.TID 0000.0001) %MON vort_p_mean                  =  -4.9027524572600E-20
(PID.TID 0000.0001) %MON vort_p_sd                    =   8.8432510603006E-05
(PID.TID 0000.0001) %MON surfExpan_theta_mean         =  -1.2730059095085E-04
(PID.TID 0000.0001) %MON surfExpan_salt_mean          =  -8.5521183703207E-08
(PID.TID 0000.0001) %MON surfExpan_Heat_mean          =  -8.5992737019123E-03
(PID.TID 0000.0001) %MON En_Budget_T2PE_mean          =   1.2365023273594E+00
(PID.TID 0000.0001) // =======================================================
(PID.TID 0000.0001) // End MONITOR dynamic field statistics
(PID.TID 0000.0001) // =======================================================
 cg2d: Sum(rhs),rhsMax =  -8.90344381332397E-07  4.15572681753538E+05
(PID.TID 0000.0001)      cg2d_init_res =   1.90672737571649E+03
(PID.TID 0000.0001)      cg2d_iters(min,last) =      -1       5
(PID.TID 0000.0001)      cg2d_last_res =   6.26030741217284E-11
(PID.TID 0000.0001) // =======================================================
(PID.TID 0000.0001) // Begin MONITOR dynamic field statistics
(PID.TID 0000.0001) // =======================================================
(PID.TID 0000.0001) %MON time_tsnumber                =               4320002
(PID.TID 0000.0001) %MON time_secondsf                =   7.7760036000000E+08
(PID.TID 0000.0001) %MON dynstat_eta_max              =   2.8975176637893E+03
(PID.TID 0000.0001) %MON dynstat_eta_min              =  -1.1306603649580E+03
(PID.TID 0000.0001) %MON dynstat_eta_mean             =   1.0965743203094E-12
(PID.TID 0000.0001) %MON dynstat_eta_sd               =   7.4203579988369E+02
(PID.TID 0000.0001) %MON dynstat_eta_del2             =   9.4728567168759E-01
(PID.TID 0000.0001) %MON dynstat_uvel_max             =   1.4662719047574E+02
(PID.TID 0000.0001) %MON dynstat_uvel_min             =  -1.1054934736717E+02
(PID.TID 0000.0001) %MON dynstat_uvel_mean            =   3.4434432439889E+00
(PID.TID 0000.0001) %MON dynstat_uvel_sd              =   1.1511915438348E+01
(PID.TID 0000.0001) %MON dynstat_uvel_del2            =   1.4677574006752E-02
(PID.TID 0000.0001) %MON dynstat_vvel_max             =   1.2556660027536E+02
(PID.TID 0000.0001) %MON dynstat_vvel_min             =  -1.1748079479871E+02
(PID.TID 0000.0001) %MON dynstat_vvel_mean            =   3.4695095246879E+00
(PID.TID 0000.0001) %MON dynstat_vvel_sd              =   1.1138641752009E+01
(PID.TID 0000.0001) %MON dynstat_vvel_del2            =   1.4334138636450E-02
(PID.TID 0000.0001) %MON dynstat_wvel_max             =   6.5941197845075E-01
(PID.TID 0000.0001) %MON dynstat_wvel_min             =  -6.9616249392736E-01
(PID.TID 0000.0001) %MON dynstat_wvel_mean            =  -3.3686281630402E-18
(PID.TID 0000.0001) %MON dynstat_wvel_sd              =   5.2012573034381E-02
(PID.TID 0000.0001) %MON dynstat_wvel_del2            =   1.4230140276551E-04
(PID.TID 0000.0001) %MON dynstat_theta_max            =   6.2852559851314E+03
(PID.TID 0000.0001) %MON dynstat_theta_min            =   2.6945511985621E+02
(PID.TID 0000.0001) %MON dynstat_theta_mean           =   3.4931396192796E+02
(PID.TID 0000.0001) %MON dynstat_theta_sd             =   1.3229952561334E+02
(PID.TID 0000.0001) %MON dynstat_theta_del2           =   7.9090906039411E-02
(PID.TID 0000.0001) %MON dynstat_salt_max             =   2.0134947148967E-02
(PID.TID 0000.0001) %MON dynstat_salt_min             =   3.8470971894881E-05
(PID.TID 0000.0001) %MON dynstat_salt_mean            =   2.9914655091098E-03
(PID.TID 0000.0001) %MON dynstat_salt_sd              =   3.9506080430409E-03
(PID.TID 0000.0001) %MON dynstat_salt_del2            =   1.3461122499186E-06
(PID.TID 0000.0001) %MON trAdv_CFL_u_max              =   1.8760183730861E-01
(PID.TID 0000.0001) %MON trAdv_CFL_v_max              =   1.6041009807026E-01
(PID.TID 0000.0001) %MON trAdv_CFL_w_max              =   9.2012116533619E-02
(PID.TID 0000.0001) %MON advcfl_uvel_max              =   1.6319759699443E-01
(PID.TID 0000.0001) %MON advcfl_vvel_max              =   1.5711890325143E-01
(PID.TID 0000.0001) %MON advcfl_wvel_max              =   5.9732657101398E-02
(PID.TID 0000.0001) %MON advcfl_W_hf_max              =   7.8066142419504E-02
(PID.TID 0000.0001) %MON am_eta_mean                  =  -3.8366378959721E+10
(PID.TID 0000.0001) %MON am_uZo_mean                  =   5.0750951016085E+11
(PID.TID 0000.0001) %MON am_tot_mean                  =   4.6914313120113E+11
(PID.TID 0000.0001) %MON pe_b_mean                    =   2.2735596218300E+00
(PID.TID 0000.0001) %MON ke_max                       =   1.2764461218540E+04
(PID.TID 0000.0001) %MON ke_mean                      =   1.4024430284969E+02
(PID.TID 0000.0001) %MON ke_vol                       =   5.0985911178574E+19
(PID.TID 0000.0001) %MON vort_r_min                   =  -6.4164694303959E-04
(PID.TID 0000.0001) %MON vort_r_max                   =   6.0071490996269E-04
(PID.TID 0000.0001) %MON vort_a_mean                  =  -2.3533245000787E-19
(PID.TID 0000.0001) %MON vort_a_sd                    =   8.8583544630731E-05
(PID.TID 0000.0001) %MON vort_p_mean                  =  -2.3533211791061E-19
(PID.TID 0000.0001) %MON vort_p_sd                    =   8.8432448405964E-05
(PID.TID 0000.0001) %MON surfExpan_theta_mean         =  -1.2549999706190E-04
(PID.TID 0000.0001) %MON surfExpan_salt_mean          =  -8.5692846691032E-08
(PID.TID 0000.0001) %MON surfExpan_Heat_mean          =  -8.4603386964923E-03
(PID.TID 0000.0001) %MON En_Budget_T2PE_mean          =   1.2370901222181E+00
(PID.TID 0000.0001) // =======================================================
(PID.TID 0000.0001) // End MONITOR dynamic field statistics
(PID.TID 0000.0001) // =======================================================
 cg2d: Sum(rhs),rhsMax =  -8.64267349243164E-07  4.15567424794448E+05
(PID.TID 0000.0001)      cg2d_init_res =   1.90602533057549E+03
(PID.TID 0000.0001)      cg2d_iters(min,last) =      -1       5
(PID.TID 0000.0001)      cg2d_last_res =   6.26885484158318E-11
(PID.TID 0000.0001) // =======================================================
(PID.TID 0000.0001) // Begin MONITOR dynamic field statistics
(PID.TID 0000.0001) // =======================================================
(PID.TID 0000.0001) %MON time_tsnumber                =               4320003
(PID.TID 0000.0001) %MON time_secondsf                =   7.7760054000000E+08
(PID.TID 0000.0001) %MON dynstat_eta_max              =   2.8975128461773E+03
(PID.TID 0000.0001) %MON dynstat_eta_min              =  -1.1305361871673E+03
(PID.TID 0000.0001) %MON dynstat_eta_mean             =   8.5155221943440E-13
(PID.TID 0000.0001) %MON dynstat_eta_sd               =   7.4205107079910E+02
(PID.TID 0000.0001) %MON dynstat_eta_del2             =   9.4725863627408E-01
(PID.TID 0000.0001) %MON dynstat_uvel_max             =   1.4741947317801E+02
(PID.TID 0000.0001) %MON dynstat_uvel_min             =  -1.1066597730811E+02
(PID.TID 0000.0001) %MON dynstat_uvel_mean            =   3.4434402815982E+00
(PID.TID 0000.0001) %MON dynstat_uvel_sd              =   1.1511846398439E+01
(PID.TID 0000.0001) %MON dynstat_uvel_del2            =   1.4677156549619E-02
(PID.TID 0000.0001) %MON dynstat_vvel_max             =   1.2553578703023E+02
(PID.TID 0000.0001) %MON dynstat_vvel_min             =  -1.1762035618416E+02
(PID.TID 0000.0001) %MON dynstat_vvel_mean            =   3.4695087686350E+00
(PID.TID 0000.0001) %MON dynstat_vvel_sd              =   1.1138618686895E+01
(PID.TID 0000.0001) %MON dynstat_vvel_del2            =   1.4334041637046E-02
(PID.TID 0000.0001) %MON dynstat_wvel_max             =   6.5761563292546E-01
(PID.TID 0000.0001) %MON dynstat_wvel_min             =  -6.9538087036968E-01
(PID.TID 0000.0001) %MON dynstat_wvel_mean            =  -2.0447131644654E-18
(PID.TID 0000.0001) %MON dynstat_wvel_sd              =   5.2011218217098E-02
(PID.TID 0000.0001) %MON dynstat_wvel_del2            =   1.4229494367352E-04
(PID.TID 0000.0001) %MON dynstat_theta_max            =   6.2807222062912E+03
(PID.TID 0000.0001) %MON dynstat_theta_min            =   2.6945514145590E+02
(PID.TID 0000.0001) %MON dynstat_theta_mean           =   3.4931393921135E+02
(PID.TID 0000.0001) %MON dynstat_theta_sd             =   1.3229962833654E+02
(PID.TID 0000.0001) %MON dynstat_theta_del2           =   7.9105094702587E-02
(PID.TID 0000.0001) %MON dynstat_salt_max             =   2.0135047582364E-02
(PID.TID 0000.0001) %MON dynstat_salt_min             =   3.8470974351357E-05
(PID.TID 0000.0001) %MON dynstat_salt_mean            =   2.9914696060003E-03
(PID.TID 0000.0001) %MON dynstat_salt_sd              =   3.9506086397054E-03
(PID.TID 0000.0001) %MON dynstat_salt_del2            =   1.3460550525071E-06
(PID.TID 0000.0001) %MON trAdv_CFL_u_max              =   1.8811065430123E-01
(PID.TID 0000.0001) %MON trAdv_CFL_v_max              =   1.6030397734901E-01
(PID.TID 0000.0001) %MON trAdv_CFL_w_max              =   9.2102985689924E-02
(PID.TID 0000.0001) %MON advcfl_uvel_max              =   1.6306425857871E-01
(PID.TID 0000.0001) %MON advcfl_vvel_max              =   1.5690342743083E-01
(PID.TID 0000.0001) %MON advcfl_wvel_max              =   5.9780685633974E-02
(PID.TID 0000.0001) %MON advcfl_W_hf_max              =   7.8287830409293E-02
(PID.TID 0000.0001) %MON am_eta_mean                  =  -3.8365807041472E+10
(PID.TID 0000.0001) %MON am_uZo_mean                  =   5.0750783396003E+11
(PID.TID 0000.0001) %MON am_tot_mean                  =   4.6914202691856E+11
(PID.TID 0000.0001) %MON pe_b_mean                    =   2.2736532013957E+00
(PID.TID 0000.0001) %MON ke_max                       =   1.2815861194600E+04
(PID.TID 0000.0001) %MON ke_mean                      =   1.4024323833544E+02
(PID.TID 0000.0001) %MON ke_vol                       =   5.0985911178574E+19
(PID.TID 0000.0001) %MON vort_r_min                   =  -6.4006441703081E-04
(PID.TID 0000.0001) %MON vort_r_max                   =   6.0220917261048E-04
(PID.TID 0000.0001) %MON vort_a_mean                  =   3.0151970157258E-19
(PID.TID 0000.0001) %MON vort_a_sd                    =   8.8583481196361E-05
(PID.TID 0000.0001) %MON vort_p_mean                  =   3.0151927602395E-19
(PID.TID 0000.0001) %MON vort_p_sd                    =   8.8432386756551E-05
(PID.TID 0000.0001) %MON surfExpan_theta_mean         =  -1.2374871469900E-04
(PID.TID 0000.0001) %MON surfExpan_salt_mean          =  -8.5861252641336E-08
(PID.TID 0000.0001) %MON surfExpan_Heat_mean          =  -8.3255656162801E-03
(PID.TID 0000.0001) %MON En_Budget_T2PE_mean          =   1.2376815104828E+00
(PID.TID 0000.0001) // =======================================================
(PID.TID 0000.0001) // End MONITOR dynamic field statistics
(PID.TID 0000.0001) // =======================================================
 cg2d: Sum(rhs),rhsMax =  -9.01520252227783E-07  4.15561767938612E+05
(PID.TID 0000.0001)      cg2d_init_res =   1.90562202193998E+03
(PID.TID 0000.0001)      cg2d_iters(min,last) =      -1       5
(PID.TID 0000.0001)      cg2d_last_res =   6.27839943616052E-11
(PID.TID 0000.0001) // =======================================================
(PID.TID 0000.0001) // Begin MONITOR dynamic field statistics
(PID.TID 0000.0001) // =======================================================
(PID.TID 0000.0001) %MON time_tsnumber                =               4320004
(PID.TID 0000.0001) %MON time_secondsf                =   7.7760072000000E+08
(PID.TID 0000.0001) %MON dynstat_eta_max              =   2.8975082548432E+03
(PID.TID 0000.0001) %MON dynstat_eta_min              =  -1.1304122542929E+03
(PID.TID 0000.0001) %MON dynstat_eta_mean             =   1.0443564955328E-12
(PID.TID 0000.0001) %MON dynstat_eta_sd               =   7.4206632693563E+02
(PID.TID 0000.0001) %MON dynstat_eta_del2             =   9.4722974664011E-01
(PID.TID 0000.0001) %MON dynstat_uvel_max             =   1.4819184247813E+02
(PID.TID 0000.0001) %MON dynstat_uvel_min             =  -1.1078219467015E+02
(PID.TID 0000.0001) %MON dynstat_uvel_mean            =   3.4434373919691E+00
(PID.TID 0000.0001) %MON dynstat_uvel_sd              =   1.1511777490711E+01
(PID.TID 0000.0001) %MON dynstat_uvel_del2            =   1.4676761198326E-02
(PID.TID 0000.0001) %MON dynstat_vvel_max             =   1.2549910815304E+02
(PID.TID 0000.0001) %MON dynstat_vvel_min             =  -1.1782942103794E+02
(PID.TID 0000.0001) %MON dynstat_vvel_mean            =   3.4695079516081E+00
(PID.TID 0000.0001) %MON dynstat_vvel_sd              =   1.1138595687245E+01
(PID.TID 0000.0001) %MON dynstat_vvel_del2            =   1.4333943480683E-02
(PID.TID 0000.0001) %MON dynstat_wvel_max             =   6.5574658594072E-01
(PID.TID 0000.0001) %MON dynstat_wvel_min             =  -6.9458727921042E-01
(PID.TID 0000.0001) %MON dynstat_wvel_mean            =   1.1964268876009E-18
(PID.TID 0000.0001) %MON dynstat_wvel_sd              =   5.2009857253434E-02
(PID.TID 0000.0001) %MON dynstat_wvel_del2            =   1.4228828039569E-04
(PID.TID 0000.0001) %MON dynstat_theta_max            =   6.2761033297095E+03
(PID.TID 0000.0001) %MON dynstat_theta_min            =   2.6945516288040E+02
(PID.TID 0000.0001) %MON dynstat_theta_mean           =   3.4931391541473E+02
(PID.TID 0000.0001) %MON dynstat_theta_sd             =   1.3229973097193E+02
(PID.TID 0000.0001) %MON dynstat_theta_del2           =   7.9118884779722E-02
(PID.TID 0000.0001) %MON dynstat_salt_max             =   2.0136968189079E-02
(PID.TID 0000.0001) %MON dynstat_salt_min             =   3.8470976812895E-05
(PID.TID 0000.0001) %MON dynstat_salt_mean            =   2.9914739680715E-03
(PID.TID 0000.0001) %MON dynstat_salt_sd              =   3.9506098146394E-03
(PID.TID 0000.0001) %MON dynstat_salt_del2            =   1.3459955069111E-06
(PID.TID 0000.0001) %MON trAdv_CFL_u_max              =   1.8860393292468E-01
(PID.TID 0000.0001) %MON trAdv_CFL_v_max              =   1.6018948142579E-01
(PID.TID 0000.0001) %MON trAdv_CFL_w_max              =   9.2185537200962E-02
(PID.TID 0000.0001) %MON advcfl_uvel_max              =   1.6292070011939E-01
(PID.TID 0000.0001) %MON advcfl_vvel_max              =   1.5668074041606E-01
(PID.TID 0000.0001) %MON advcfl_wvel_max              =   5.9821639290374E-02
(PID.TID 0000.0001) %MON advcfl_W_hf_max              =   7.8485178379310E-02
(PID.TID 0000.0001) %MON am_eta_mean                  =  -3.8365233326094E+10
(PID.TID 0000.0001) %MON am_uZo_mean                  =   5.0750615746334E+11
(PID.TID 0000.0001) %MON am_tot_mean                  =   4.6914092413724E+11
(PID.TID 0000.0001) %MON pe_b_mean                    =   2.2737466923199E+00
(PID.TID 0000.0001) %MON ke_max                       =   1.2864408158131E+04
(PID.TID 0000.0001) %MON ke_mean                      =   1.4024217611661E+02
(PID.TID 0000.0001) %MON ke_vol                       =   5.0985911178574E+19
(PID.TID 0000.0001) %MON vort_r_min                   =  -6.3827645039818E-04
(PID.TID 0000.0001) %MON vort_r_max                   =   6.0360468675111E-04
(PID.TID 0000.0001) %MON vort_a_mean                  =  -1.2747174375426E-19
(PID.TID 0000.0001) %MON vort_a_sd                    =   8.8583418125818E-05
(PID.TID 0000.0001) %MON vort_p_mean                  =  -1.2992294005404E-19
(PID.TID 0000.0001) %MON vort_p_sd                    =   8.8432325477072E-05
(PID.TID 0000.0001) %MON surfExpan_theta_mean         =  -1.2205326107893E-04
(PID.TID 0000.0001) %MON surfExpan_salt_mean          =  -8.6031093267854E-08
(PID.TID 0000.0001) %MON surfExpan_Heat_mean          =  -8.1955536072696E-03
(PID.TID 0000.0001) %MON En_Budget_T2PE_mean          =   1.2382758144030E+00
(PID.TID 0000.0001) // =======================================================
(PID.TID 0000.0001) // End MONITOR dynamic field statistics
(PID.TID 0000.0001) // =======================================================
 cg2d: Sum(rhs),rhsMax =  -6.59376382827759E-07  4.15555686915529E+05
(PID.TID 0000.0001)      cg2d_init_res =   1.90544600792200E+03
(PID.TID 0000.0001)      cg2d_iters(min,last) =      -1       5
(PID.TID 0000.0001)      cg2d_last_res =   6.29006366777871E-11
(PID.TID 0000.0001) // =======================================================
(PID.TID 0000.0001) // Begin MONITOR dynamic field statistics
(PID.TID 0000.0001) // =======================================================
(PID.TID 0000.0001) %MON time_tsnumber                =               4320005
(PID.TID 0000.0001) %MON time_secondsf                =   7.7760090000000E+08
(PID.TID 0000.0001) %MON dynstat_eta_max              =   2.8975040448345E+03
(PID.TID 0000.0001) %MON dynstat_eta_min              =  -1.1302881319062E+03
(PID.TID 0000.0001) %MON dynstat_eta_mean             =   1.3295461539282E-12
(PID.TID 0000.0001) %MON dynstat_eta_sd               =   7.4208156859586E+02
(PID.TID 0000.0001) %MON dynstat_eta_del2             =   9.4719934742697E-01
(PID.TID 0000.0001) %MON dynstat_uvel_max             =   1.4894365969870E+02
(PID.TID 0000.0001) %MON dynstat_uvel_min             =  -1.1089798470915E+02
(PID.TID 0000.0001) %MON dynstat_uvel_mean            =   3.4434345635845E+00
(PID.TID 0000.0001) %MON dynstat_uvel_sd              =   1.1511708713395E+01
(PID.TID 0000.0001) %MON dynstat_uvel_del2            =   1.4676387626085E-02
(PID.TID 0000.0001) %MON dynstat_vvel_max             =   1.2545655986032E+02
(PID.TID 0000.0001) %MON dynstat_vvel_min             =  -1.1803511788788E+02
(PID.TID 0000.0001) %MON dynstat_vvel_mean            =   3.4695070815535E+00
(PID.TID 0000.0001) %MON dynstat_vvel_sd              =   1.1138572696858E+01
(PID.TID 0000.0001) %MON dynstat_vvel_del2            =   1.4333844012533E-02
(PID.TID 0000.0001) %MON dynstat_wvel_max             =   6.5380505615085E-01
(PID.TID 0000.0001) %MON dynstat_wvel_min             =  -6.9378178379780E-01
(PID.TID 0000.0001) %MON dynstat_wvel_mean            =  -2.3045927752968E-19
(PID.TID 0000.0001) %MON dynstat_wvel_sd              =   5.2008494429248E-02
(PID.TID 0000.0001) %MON dynstat_wvel_del2            =   1.4228141022443E-04
(PID.TID 0000.0001) %MON dynstat_theta_max            =   6.2713992766575E+03
(PID.TID 0000.0001) %MON dynstat_theta_min            =   2.6945518412250E+02
(PID.TID 0000.0001) %MON dynstat_theta_mean           =   3.4931389320213E+02
(PID.TID 0000.0001) %MON dynstat_theta_sd             =   1.3229983347146E+02
(PID.TID 0000.0001) %MON dynstat_theta_del2           =   7.9132265861743E-02
(PID.TID 0000.0001) %MON dynstat_salt_max             =   2.0150294515007E-02
(PID.TID 0000.0001) %MON dynstat_salt_min             =   3.8470979279361E-05
(PID.TID 0000.0001) %MON dynstat_salt_mean            =   2.9914777935781E-03
(PID.TID 0000.0001) %MON dynstat_salt_sd              =   3.9506102834681E-03
(PID.TID 0000.0001) %MON dynstat_salt_del2            =   1.3460127190642E-06
(PID.TID 0000.0001) %MON trAdv_CFL_u_max              =   1.8908143004971E-01
(PID.TID 0000.0001) %MON trAdv_CFL_v_max              =   1.6006665647966E-01
(PID.TID 0000.0001) %MON trAdv_CFL_w_max              =   9.2259849079220E-02
(PID.TID 0000.0001) %MON advcfl_uvel_max              =   1.6276709169478E-01
(PID.TID 0000.0001) %MON advcfl_vvel_max              =   1.5645093883797E-01
(PID.TID 0000.0001) %MON advcfl_wvel_max              =   5.9855460958951E-02
(PID.TID 0000.0001) %MON advcfl_W_hf_max              =   7.8657398007408E-02
(PID.TID 0000.0001) %MON am_eta_mean                  =  -3.8364657877286E+10
(PID.TID 0000.0001) %MON am_uZo_mean                  =   5.0750448068195E+11
(PID.TID 0000.0001) %MON am_tot_mean                  =   4.6913982280466E+11
(PID.TID 0000.0001) %MON pe_b_mean                    =   2.2738400964516E+00
(PID.TID 0000.0001) %MON ke_max                       =   1.2910084224878E+04
(PID.TID 0000.0001) %MON ke_mean                      =   1.4024111553468E+02
(PID.TID 0000.0001) %MON ke_vol                       =   5.0985911178574E+19
(PID.TID 0000.0001) %MON vort_r_min                   =  -6.3628366180890E-04
(PID.TID 0000.0001) %MON vort_r_max                   =   6.0490061840236E-04
(PID.TID 0000.0001) %MON vort_a_mean                  =  -6.6187251564714E-20
(PID.TID 0000.0001) %MON vort_a_sd                    =   8.8583355446577E-05
(PID.TID 0000.0001) %MON vort_p_mean                  =  -6.8638534356824E-20
(PID.TID 0000.0001) %MON vort_p_sd                    =   8.8432264593794E-05
(PID.TID 0000.0001) %MON surfExpan_theta_mean         =  -1.2040723297839E-04
(PID.TID 0000.0001) %MON surfExpan_salt_mean          =  -8.6200395611882E-08
(PID.TID 0000.0001) %MON surfExpan_Heat_mean          =  -8.0697290105281E-03
(PID.TID 0000.0001) %MON En_Budget_T2PE_mean          =   1.2388717754857E+00
(PID.TID 0000.0001) // =======================================================
(PID.TID 0000.0001) // End MONITOR dynamic field statistics
(PID.TID 0000.0001) // =======================================================
 cg2d: Sum(rhs),rhsMax =  -1.02445483207703E-06  4.15549158019632E+05
(PID.TID 0000.0001)      cg2d_init_res =   1.90542777500509E+03
(PID.TID 0000.0001)      cg2d_iters(min,last) =      -1       5
(PID.TID 0000.0001)      cg2d_last_res =   6.30340888047607E-11
(PID.TID 0000.0001) // =======================================================
(PID.TID 0000.0001) // Begin MONITOR dynamic field statistics
(PID.TID 0000.0001) // =======================================================
(PID.TID 0000.0001) %MON time_tsnumber                =               4320006
(PID.TID 0000.0001) %MON time_secondsf                =   7.7760108000000E+08
(PID.TID 0000.0001) %MON dynstat_eta_max              =   2.8975003767980E+03
(PID.TID 0000.0001) %MON dynstat_eta_min              =  -1.1301634005134E+03
(PID.TID 0000.0001) %MON dynstat_eta_mean             =   1.1528089008381E-12
(PID.TID 0000.0001) %MON dynstat_eta_sd               =   7.4209679626614E+02
(PID.TID 0000.0001) %MON dynstat_eta_del2             =   9.4716788662412E-01
(PID.TID 0000.0001) %MON dynstat_uvel_max             =   1.4967430175755E+02
(PID.TID 0000.0001) %MON dynstat_uvel_min             =  -1.1101333233210E+02
(PID.TID 0000.0001) %MON dynstat_uvel_mean            =   3.4434318040549E+00
(PID.TID 0000.0001) %MON dynstat_uvel_sd              =   1.1511640074343E+01
(PID.TID 0000.0001) %MON dynstat_uvel_del2            =   1.4676036082202E-02
(PID.TID 0000.0001) %MON dynstat_vvel_max             =   1.2540813997427E+02
(PID.TID 0000.0001) %MON dynstat_vvel_min             =  -1.1823741469405E+02
(PID.TID 0000.0001) %MON dynstat_vvel_mean            =   3.4695061573375E+00
(PID.TID 0000.0001) %MON dynstat_vvel_sd              =   1.1138549800411E+01
(PID.TID 0000.0001) %MON dynstat_vvel_del2            =   1.4333743740186E-02
(PID.TID 0000.0001) %MON dynstat_wvel_max             =   6.5179133740352E-01
(PID.TID 0000.0001) %MON dynstat_wvel_min             =  -6.9296450465376E-01
(PID.TID 0000.0001) %MON dynstat_wvel_mean            =  -2.0201962200474E-18
(PID.TID 0000.0001) %MON dynstat_wvel_sd              =   5.2007125286780E-02
(PID.TID 0000.0001) %MON dynstat_wvel_del2            =   1.4227431612919E-04
(PID.TID 0000.0001) %MON dynstat_theta_max            =   6.2666099741733E+03
(PID.TID 0000.0001) %MON dynstat_theta_min            =   2.6945520517715E+02
(PID.TID 0000.0001) %MON dynstat_theta_mean           =   3.4931386915670E+02
(PID.TID 0000.0001) %MON dynstat_theta_sd             =   1.3229993631553E+02
(PID.TID 0000.0001) %MON dynstat_theta_del2           =   7.9145231564413E-02
(PID.TID 0000.0001) %MON dynstat_salt_max             =   2.0164010560356E-02
(PID.TID 0000.0001) %MON dynstat_salt_min             =   3.8470981750619E-05
(PID.TID 0000.0001) %MON dynstat_salt_mean            =   2.9914823068580E-03
(PID.TID 0000.0001) %MON dynstat_salt_sd              =   3.9505997218279E-03
(PID.TID 0000.0001) %MON dynstat_salt_del2            =   1.3460485767457E-06
(PID.TID 0000.0001) %MON trAdv_CFL_u_max              =   1.8954291970587E-01
(PID.TID 0000.0001) %MON trAdv_CFL_v_max              =   1.5993554715172E-01
(PID.TID 0000.0001) %MON trAdv_CFL_w_max              =   9.2326000877870E-02
(PID.TID 0000.0001) %MON advcfl_uvel_max              =   1.6260361015305E-01
(PID.TID 0000.0001) %MON advcfl_vvel_max              =   1.5621412100151E-01
(PID.TID 0000.0001) %MON advcfl_wvel_max              =   5.9882094018830E-02
(PID.TID 0000.0001) %MON advcfl_W_hf_max              =   7.8803701029791E-02
(PID.TID 0000.0001) %MON am_eta_mean                  =  -3.8364080758359E+10
(PID.TID 0000.0001) %MON am_uZo_mean                  =   5.0750280383690E+11
(PID.TID 0000.0001) %MON am_tot_mean                  =   4.6913872307854E+11
(PID.TID 0000.0001) %MON pe_b_mean                    =   2.2739334167656E+00
(PID.TID 0000.0001) %MON ke_max                       =   1.2952875195451E+04
(PID.TID 0000.0001) %MON ke_mean                      =   1.4024005764548E+02
(PID.TID 0000.0001) %MON ke_vol                       =   5.0985911178574E+19
(PID.TID 0000.0001) %MON vort_r_min                   =  -6.3408672723897E-04
(PID.TID 0000.0001) %MON vort_r_max                   =   6.0609617163131E-04
(PID.TID 0000.0001) %MON vort_a_mean                  =   6.1284492189550E-20
(PID.TID 0000.0001) %MON vort_a_sd                    =   8.8583293167870E-05
(PID.TID 0000.0001) %MON vort_p_mean                  =   6.1284405665553E-20
(PID.TID 0000.0001) %MON vort_p_sd                    =   8.8432204117089E-05
(PID.TID 0000.0001) %MON surfExpan_theta_mean         =  -1.1881950467958E-04
(PID.TID 0000.0001) %MON surfExpan_salt_mean          =  -8.6363016467226E-08
(PID.TID 0000.0001) %MON surfExpan_Heat_mean          =  -7.9489046679349E-03
(PID.TID 0000.0001) %MON En_Budget_T2PE_mean          =   1.2394693071275E+00
(PID.TID 0000.0001) // =======================================================
(PID.TID 0000.0001) // End MONITOR dynamic field statistics
(PID.TID 0000.0001) // =======================================================
 cg2d: Sum(rhs),rhsMax =  -7.45058059692383E-07  4.15542144838577E+05
(PID.TID 0000.0001)      cg2d_init_res =   1.90556955827667E+03
(PID.TID 0000.0001)      cg2d_iters(min,last) =      -1       5
(PID.TID 0000.0001)      cg2d_last_res =   6.31809630781300E-11
(PID.TID 0000.0001) // =======================================================
(PID.TID 0000.0001) // Begin MONITOR dynamic field statistics
(PID.TID 0000.0001) // =======================================================
(PID.TID 0000.0001) %MON time_tsnumber                =               4320007
(PID.TID 0000.0001) %MON time_secondsf                =   7.7760126000000E+08
(PID.TID 0000.0001) %MON dynstat_eta_max              =   2.8974974015471E+03
(PID.TID 0000.0001) %MON dynstat_eta_min              =  -1.1300376851286E+03
(PID.TID 0000.0001) %MON dynstat_eta_mean             =   1.3496299326885E-12
(PID.TID 0000.0001) %MON dynstat_eta_sd               =   7.4211201041050E+02
(PID.TID 0000.0001) %MON dynstat_eta_del2             =   9.4713565205204E-01
(PID.TID 0000.0001) %MON dynstat_uvel_max             =   1.5038316079670E+02
(PID.TID 0000.0001) %MON dynstat_uvel_min             =  -1.1112822196993E+02
(PID.TID 0000.0001) %MON dynstat_uvel_mean            =   3.4434291167399E+00
(PID.TID 0000.0001) %MON dynstat_uvel_sd              =   1.1511571451188E+01
(PID.TID 0000.0001) %MON dynstat_uvel_del2            =   1.4675706399768E-02
(PID.TID 0000.0001) %MON dynstat_vvel_max             =   1.2535384779278E+02
(PID.TID 0000.0001) %MON dynstat_vvel_min             =  -1.1843628028172E+02
(PID.TID 0000.0001) %MON dynstat_vvel_mean            =   3.4695051751976E+00
(PID.TID 0000.0001) %MON dynstat_vvel_sd              =   1.1138527018430E+01
(PID.TID 0000.0001) %MON dynstat_vvel_del2            =   1.4333643370648E-02
(PID.TID 0000.0001) %MON dynstat_wvel_max             =   6.4970577875092E-01
(PID.TID 0000.0001) %MON dynstat_wvel_min             =  -6.9213562807977E-01
(PID.TID 0000.0001) %MON dynstat_wvel_mean            =   4.8813236336339E-18
(PID.TID 0000.0001) %MON dynstat_wvel_sd              =   5.2005752950355E-02
(PID.TID 0000.0001) %MON dynstat_wvel_del2            =   1.4226701957228E-04
(PID.TID 0000.0001) %MON dynstat_theta_max            =   6.2617353575013E+03
(PID.TID 0000.0001) %MON dynstat_theta_min            =   2.6945522603745E+02
(PID.TID 0000.0001) %MON dynstat_theta_mean           =   3.4931384460651E+02
(PID.TID 0000.0001) %MON dynstat_theta_sd             =   1.3230003936884E+02
(PID.TID 0000.0001) %MON dynstat_theta_del2           =   7.9157778301758E-02
(PID.TID 0000.0001) %MON dynstat_salt_max             =   2.0135580035461E-02
(PID.TID 0000.0001) %MON dynstat_salt_min             =   3.8470984226534E-05
(PID.TID 0000.0001) %MON dynstat_salt_mean            =   2.9914870246489E-03
(PID.TID 0000.0001) %MON dynstat_salt_sd              =   3.9506013793302E-03
(PID.TID 0000.0001) %MON dynstat_salt_del2            =   1.3461188147852E-06
(PID.TID 0000.0001) %MON trAdv_CFL_u_max              =   1.8998819368251E-01
(PID.TID 0000.0001) %MON trAdv_CFL_v_max              =   1.5979619412408E-01
(PID.TID 0000.0001) %MON trAdv_CFL_w_max              =   9.2384081663910E-02
(PID.TID 0000.0001) %MON advcfl_uvel_max              =   1.6243043848405E-01
(PID.TID 0000.0001) %MON advcfl_vvel_max              =   1.5597038714521E-01
(PID.TID 0000.0001) %MON advcfl_wvel_max              =   5.9901458221336E-02
(PID.TID 0000.0001) %MON advcfl_W_hf_max              =   7.8923300645508E-02
(PID.TID 0000.0001) %MON am_eta_mean                  =  -3.8363502035505E+10
(PID.TID 0000.0001) %MON am_uZo_mean                  =   5.0750112709434E+11
(PID.TID 0000.0001) %MON am_tot_mean                  =   4.6913762505884E+11
(PID.TID 0000.0001) %MON pe_b_mean                    =   2.2740266561007E+00
(PID.TID 0000.0001) %MON ke_max                       =   1.2992770564050E+04
(PID.TID 0000.0001) %MON ke_mean                      =   1.4023900126737E+02
(PID.TID 0000.0001) %MON ke_vol                       =   5.0985911178574E+19
(PID.TID 0000.0001) %MON vort_r_min                   =  -6.3168638055164E-04
(PID.TID 0000.0001) %MON vort_r_max                   =   6.0719059041037E-04
(PID.TID 0000.0001) %MON vort_a_mean                  =  -6.8638631252296E-20
(PID.TID 0000.0001) %MON vort_a_sd                    =   8.8583231333281E-05
(PID.TID 0000.0001) %MON vort_p_mean                  =  -6.8638534333981E-20
(PID.TID 0000.0001) %MON vort_p_sd                    =   8.8432144089747E-05
(PID.TID 0000.0001) %MON surfExpan_theta_mean         =  -1.1728833316775E-04
(PID.TID 0000.0001) %MON surfExpan_salt_mean          =  -8.6522718241792E-08
(PID.TID 0000.0001) %MON surfExpan_Heat_mean          =  -7.8329697726553E-03
(PID.TID 0000.0001) %MON En_Budget_T2PE_mean          =   1.2400717954632E+00
(PID.TID 0000.0001) // =======================================================
(PID.TID 0000.0001) // End MONITOR dynamic field statistics
(PID.TID 0000.0001) // =======================================================
 cg2d: Sum(rhs),rhsMax =  -7.18981027603149E-07  4.15534607529140E+05
(PID.TID 0000.0001)      cg2d_init_res =   1.90587535553720E+03
(PID.TID 0000.0001)      cg2d_iters(min,last) =      -1       5
(PID.TID 0000.0001)      cg2d_last_res =   6.33375559270229E-11
(PID.TID 0000.0001) // =======================================================
(PID.TID 0000.0001) // Begin MONITOR dynamic field statistics
(PID.TID 0000.0001) // =======================================================
(PID.TID 0000.0001) %MON time_tsnumber                =               4320008
(PID.TID 0000.0001) %MON time_secondsf                =   7.7760144000000E+08
(PID.TID 0000.0001) %MON dynstat_eta_max              =   2.8974952562866E+03
(PID.TID 0000.0001) %MON dynstat_eta_min              =  -1.1299106820563E+03
(PID.TID 0000.0001) %MON dynstat_eta_mean             =   1.2251105043750E-12
(PID.TID 0000.0001) %MON dynstat_eta_sd               =   7.4212721104382E+02
(PID.TID 0000.0001) %MON dynstat_eta_del2             =   9.4710293561724E-01
(PID.TID 0000.0001) %MON dynstat_uvel_max             =   1.5106964567938E+02
(PID.TID 0000.0001) %MON dynstat_uvel_min             =  -1.1124263758970E+02
(PID.TID 0000.0001) %MON dynstat_uvel_mean            =   3.4434264999440E+00
(PID.TID 0000.0001) %MON dynstat_uvel_sd              =   1.1511503062023E+01
(PID.TID 0000.0001) %MON dynstat_uvel_del2            =   1.4675398452080E-02
(PID.TID 0000.0001) %MON dynstat_vvel_max             =   1.2529368396230E+02
(PID.TID 0000.0001) %MON dynstat_vvel_min             =  -1.1863168449979E+02
(PID.TID 0000.0001) %MON dynstat_vvel_mean            =   3.4695041298020E+00
(PID.TID 0000.0001) %MON dynstat_vvel_sd              =   1.1138504289830E+01
(PID.TID 0000.0001) %MON dynstat_vvel_del2            =   1.4333542327508E-02
(PID.TID 0000.0001) %MON dynstat_wvel_max             =   6.4754874897646E-01
(PID.TID 0000.0001) %MON dynstat_wvel_min             =  -6.9129532601496E-01
(PID.TID 0000.0001) %MON dynstat_wvel_mean            =   1.1522963876484E-18
(PID.TID 0000.0001) %MON dynstat_wvel_sd              =   5.2004378071057E-02
(PID.TID 0000.0001) %MON dynstat_wvel_del2            =   1.4225954082383E-04
(PID.TID 0000.0001) %MON dynstat_theta_max            =   6.2567753720445E+03
(PID.TID 0000.0001) %MON dynstat_theta_min            =   2.6945524669731E+02
(PID.TID 0000.0001) %MON dynstat_theta_mean           =   3.4931382016625E+02
(PID.TID 0000.0001) %MON dynstat_theta_sd             =   1.3230014213695E+02
(PID.TID 0000.0001) %MON dynstat_theta_del2           =   7.9169905607940E-02
(PID.TID 0000.0001) %MON dynstat_salt_max             =   2.0135525270206E-02
(PID.TID 0000.0001) %MON dynstat_salt_min             =   3.8470986706971E-05
(PID.TID 0000.0001) %MON dynstat_salt_mean            =   2.9914916750197E-03
(PID.TID 0000.0001) %MON dynstat_salt_sd              =   3.9505995990197E-03
(PID.TID 0000.0001) %MON dynstat_salt_del2            =   1.3461440201572E-06
(PID.TID 0000.0001) %MON trAdv_CFL_u_max              =   1.9041706186293E-01
(PID.TID 0000.0001) %MON trAdv_CFL_v_max              =   1.5964863217963E-01
(PID.TID 0000.0001) %MON trAdv_CFL_w_max              =   9.2434176471354E-02
(PID.TID 0000.0001) %MON advcfl_uvel_max              =   1.6224776510683E-01
(PID.TID 0000.0001) %MON advcfl_vvel_max              =   1.5571983973920E-01
(PID.TID 0000.0001) %MON advcfl_wvel_max              =   5.9913499809139E-02
(PID.TID 0000.0001) %MON advcfl_W_hf_max              =   7.9015414132323E-02
(PID.TID 0000.0001) %MON am_eta_mean                  =  -3.8362921772949E+10
(PID.TID 0000.0001) %MON am_uZo_mean                  =   5.0749944983384E+11
(PID.TID 0000.0001) %MON am_tot_mean                  =   4.6913652806089E+11
(PID.TID 0000.0001) %MON pe_b_mean                    =   2.2741198145427E+00
(PID.TID 0000.0001) %MON ke_max                       =   1.3029763542869E+04
(PID.TID 0000.0001) %MON ke_mean                      =   1.4023794820632E+02
(PID.TID 0000.0001) %MON ke_vol                       =   5.0985911178574E+19
(PID.TID 0000.0001) %MON vort_r_min                   =  -6.2908341445401E-04
(PID.TID 0000.0001) %MON vort_r_max                   =   6.0818316025018E-04
(PID.TID 0000.0001) %MON vort_a_mean                  =   6.1284492189550E-20
(PID.TID 0000.0001) %MON vort_a_sd                    =   8.8583169843438E-05
(PID.TID 0000.0001) %MON vort_p_mean                  =   5.8833029419312E-20
(PID.TID 0000.0001) %MON vort_p_sd                    =   8.8432084411617E-05
(PID.TID 0000.0001) %MON surfExpan_theta_mean         =  -1.1580560021518E-04
(PID.TID 0000.0001) %MON surfExpan_salt_mean          =  -8.6678975206757E-08
(PID.TID 0000.0001) %MON surfExpan_Heat_mean          =  -7.7211212228048E-03
(PID.TID 0000.0001) %MON En_Budget_T2PE_mean          =   1.2406729078928E+00
(PID.TID 0000.0001) // =======================================================
(PID.TID 0000.0001) // End MONITOR dynamic field statistics
(PID.TID 0000.0001) // =======================================================
 cg2d: Sum(rhs),rhsMax =  -8.49366188049316E-07  4.15526509119880E+05
(PID.TID 0000.0001)      cg2d_init_res =   1.90630816952399E+03
(PID.TID 0000.0001)      cg2d_iters(min,last) =      -1       5
(PID.TID 0000.0001)      cg2d_last_res =   6.34904258580443E-11
(PID.TID 0000.0001) // =======================================================
(PID.TID 0000.0001) // Begin MONITOR dynamic field statistics
(PID.TID 0000.0001) // =======================================================
(PID.TID 0000.0001) %MON time_tsnumber                =               4320009
(PID.TID 0000.0001) %MON time_secondsf                =   7.7760162000000E+08
(PID.TID 0000.0001) %MON dynstat_eta_max              =   2.8974940604806E+03
(PID.TID 0000.0001) %MON dynstat_eta_min              =  -1.1297821994319E+03
(PID.TID 0000.0001) %MON dynstat_eta_mean             =   1.0323062282766E-12
(PID.TID 0000.0001) %MON dynstat_eta_sd               =   7.4214239877318E+02
(PID.TID 0000.0001) %MON dynstat_eta_del2             =   9.4706966370022E-01
(PID.TID 0000.0001) %MON dynstat_uvel_max             =   1.5173318539460E+02
(PID.TID 0000.0001) %MON dynstat_uvel_min             =  -1.1135656279024E+02
(PID.TID 0000.0001) %MON dynstat_uvel_mean            =   3.4434239598745E+00
(PID.TID 0000.0001) %MON dynstat_uvel_sd              =   1.1511434710373E+01
(PID.TID 0000.0001) %MON dynstat_uvel_del2            =   1.4675112000427E-02
(PID.TID 0000.0001) %MON dynstat_vvel_max             =   1.2522765031358E+02
(PID.TID 0000.0001) %MON dynstat_vvel_min             =  -1.1882359826509E+02
(PID.TID 0000.0001) %MON dynstat_vvel_mean            =   3.4695030311858E+00
(PID.TID 0000.0001) %MON dynstat_vvel_sd              =   1.1138481701186E+01
(PID.TID 0000.0001) %MON dynstat_vvel_del2            =   1.4333441063985E-02
(PID.TID 0000.0001) %MON dynstat_wvel_max             =   6.4532060852036E-01
(PID.TID 0000.0001) %MON dynstat_wvel_min             =  -6.9044375238322E-01
(PID.TID 0000.0001) %MON dynstat_wvel_mean            =   2.3781436085509E-19
(PID.TID 0000.0001) %MON dynstat_wvel_sd              =   5.2003000342556E-02
(PID.TID 0000.0001) %MON dynstat_wvel_del2            =   1.4225189862840E-04
(PID.TID 0000.0001) %MON dynstat_theta_max            =   6.2517299764619E+03
(PID.TID 0000.0001) %MON dynstat_theta_min            =   2.6945526715279E+02
(PID.TID 0000.0001) %MON dynstat_theta_mean           =   3.4931379497541E+02
(PID.TID 0000.0001) %MON dynstat_theta_sd             =   1.3230024520131E+02
(PID.TID 0000.0001) %MON dynstat_theta_del2           =   7.9181617486154E-02
(PID.TID 0000.0001) %MON dynstat_salt_max             =   2.0135616642305E-02
(PID.TID 0000.0001) %MON dynstat_salt_min             =   3.8470989191792E-05
(PID.TID 0000.0001) %MON dynstat_salt_mean            =   2.9914966614897E-03
(PID.TID 0000.0001) %MON dynstat_salt_sd              =   3.9505897790902E-03
(PID.TID 0000.0001) %MON dynstat_salt_del2            =   1.3460266780695E-06
(PID.TID 0000.0001) %MON trAdv_CFL_u_max              =   1.9082935196429E-01
(PID.TID 0000.0001) %MON trAdv_CFL_v_max              =   1.5949288918350E-01
(PID.TID 0000.0001) %MON trAdv_CFL_w_max              =   9.2476369951743E-02
(PID.TID 0000.0001) %MON advcfl_uvel_max              =   1.6205578327262E-01
(PID.TID 0000.0001) %MON advcfl_vvel_max              =   1.5546258378373E-01
(PID.TID 0000.0001) %MON advcfl_wvel_max              =   5.9918175929246E-02
(PID.TID 0000.0001) %MON advcfl_W_hf_max              =   7.9079267271379E-02
(PID.TID 0000.0001) %MON am_eta_mean                  =  -3.8362340032849E+10
(PID.TID 0000.0001) %MON am_uZo_mean                  =   5.0749777299999E+11
(PID.TID 0000.0001) %MON am_tot_mean                  =   4.6913543296714E+11
(PID.TID 0000.0001) %MON pe_b_mean                    =   2.2742128958074E+00
(PID.TID 0000.0001) %MON ke_max                       =   1.3063851096512E+04
(PID.TID 0000.0001) %MON ke_mean                      =   1.4023689722094E+02
(PID.TID 0000.0001) %MON ke_vol                       =   5.0985911178574E+19
(PID.TID 0000.0001) %MON vort_r_min                   =  -6.2627868108708E-04
(PID.TID 0000.0001) %MON vort_r_max                   =   6.0907318960901E-04
(PID.TID 0000.0001) %MON vort_a_mean                  =   1.0786070625361E-19
(PID.TID 0000.0001) %MON vort_a_sd                    =   8.8583108806690E-05
(PID.TID 0000.0001) %MON vort_p_mean                  =   1.0786055391745E-19
(PID.TID 0000.0001) %MON vort_p_sd                    =   8.8432025191751E-05
(PID.TID 0000.0001) %MON surfExpan_theta_mean         =  -1.1437705667956E-04
(PID.TID 0000.0001) %MON surfExpan_salt_mean          =  -8.6846574549427E-08
(PID.TID 0000.0001) %MON surfExpan_Heat_mean          =  -7.6138852562010E-03
(PID.TID 0000.0001) %MON En_Budget_T2PE_mean          =   1.2412785083497E+00
(PID.TID 0000.0001) // =======================================================
(PID.TID 0000.0001) // End MONITOR dynamic field statistics
(PID.TID 0000.0001) // =======================================================
 cg2d: Sum(rhs),rhsMax =  -1.11758708953857E-06  4.15517815276434E+05
(PID.TID 0000.0001)      cg2d_init_res =   1.90680827887195E+03
(PID.TID 0000.0001)      cg2d_iters(min,last) =      -1       5
(PID.TID 0000.0001)      cg2d_last_res =   6.36463151215298E-11
(PID.TID 0000.0001) // =======================================================
(PID.TID 0000.0001) // Begin MONITOR dynamic field statistics
(PID.TID 0000.0001) // =======================================================
(PID.TID 0000.0001) %MON time_tsnumber                =               4320010
(PID.TID 0000.0001) %MON time_secondsf                =   7.7760180000000E+08
(PID.TID 0000.0001) %MON dynstat_eta_max              =   2.8974939128077E+03
(PID.TID 0000.0001) %MON dynstat_eta_min              =  -1.1296521632707E+03
(PID.TID 0000.0001) %MON dynstat_eta_mean             =   7.2301603536883E-13
(PID.TID 0000.0001) %MON dynstat_eta_sd               =   7.4215757348535E+02
(PID.TID 0000.0001) %MON dynstat_eta_del2             =   9.4703609827758E-01
(PID.TID 0000.0001) %MON dynstat_uvel_max             =   1.5237322788251E+02
(PID.TID 0000.0001) %MON dynstat_uvel_min             =  -1.1146998084240E+02
(PID.TID 0000.0001) %MON dynstat_uvel_mean            =   3.4434214866310E+00
(PID.TID 0000.0001) %MON dynstat_uvel_sd              =   1.1511366573444E+01
(PID.TID 0000.0001) %MON dynstat_uvel_del2            =   1.4674846250314E-02
(PID.TID 0000.0001) %MON dynstat_vvel_max             =   1.2515574972723E+02
(PID.TID 0000.0001) %MON dynstat_vvel_min             =  -1.1901199360251E+02
(PID.TID 0000.0001) %MON dynstat_vvel_mean            =   3.4695018690688E+00
(PID.TID 0000.0001) %MON dynstat_vvel_sd              =   1.1138459082059E+01
(PID.TID 0000.0001) %MON dynstat_vvel_del2            =   1.4333339371192E-02
(PID.TID 0000.0001) %MON dynstat_wvel_max             =   6.4302169636837E-01
(PID.TID 0000.0001) %MON dynstat_wvel_min             =  -6.8958103584636E-01
(PID.TID 0000.0001) %MON dynstat_wvel_mean            =   3.0891349966744E-19
(PID.TID 0000.0001) %MON dynstat_wvel_sd              =   5.2001620713701E-02
(PID.TID 0000.0001) %MON dynstat_wvel_del2            =   1.4224409360081E-04
(PID.TID 0000.0001) %MON dynstat_theta_max            =   6.2465991451310E+03
(PID.TID 0000.0001) %MON dynstat_theta_min            =   2.6945528739878E+02
(PID.TID 0000.0001) %MON dynstat_theta_mean           =   3.4931376954967E+02
(PID.TID 0000.0001) %MON dynstat_theta_sd             =   1.3230034828470E+02
(PID.TID 0000.0001) %MON dynstat_theta_del2           =   7.9192920447949E-02
(PID.TID 0000.0001) %MON dynstat_salt_max             =   2.0135706698972E-02
(PID.TID 0000.0001) %MON dynstat_salt_min             =   3.8470991680864E-05
(PID.TID 0000.0001) %MON dynstat_salt_mean            =   2.9915017305889E-03
(PID.TID 0000.0001) %MON dynstat_salt_sd              =   3.9505900216418E-03
(PID.TID 0000.0001) %MON dynstat_salt_del2            =   1.3459563114746E-06
(PID.TID 0000.0001) %MON trAdv_CFL_u_max              =   1.9122490909780E-01
(PID.TID 0000.0001) %MON trAdv_CFL_v_max              =   1.5932898625144E-01
(PID.TID 0000.0001) %MON trAdv_CFL_w_max              =   9.2510755297268E-02
(PID.TID 0000.0001) %MON advcfl_uvel_max              =   1.6185469023732E-01
(PID.TID 0000.0001) %MON advcfl_vvel_max              =   1.5519872707695E-01
(PID.TID 0000.0001) %MON advcfl_wvel_max              =   5.9915425854987E-02
(PID.TID 0000.0001) %MON advcfl_W_hf_max              =   7.9114100797301E-02
(PID.TID 0000.0001) %MON am_eta_mean                  =  -3.8361756879663E+10
(PID.TID 0000.0001) %MON am_uZo_mean                  =   5.0749609549985E+11
(PID.TID 0000.0001) %MON am_tot_mean                  =   4.6913433862018E+11
(PID.TID 0000.0001) %MON pe_b_mean                    =   2.2743058991960E+00
(PID.TID 0000.0001) %MON ke_max                       =   1.3095033912005E+04
(PID.TID 0000.0001) %MON ke_mean                      =   1.4023584838299E+02
(PID.TID 0000.0001) %MON ke_vol                       =   5.0985911178574E+19
(PID.TID 0000.0001) %MON vort_r_min                   =  -6.2327309273329E-04
(PID.TID 0000.0001) %MON vort_r_max                   =   6.0986004833179E-04
(PID.TID 0000.0001) %MON vort_a_mean                  =  -2.9906832188500E-19
(PID.TID 0000.0001) %MON vort_a_sd                    =   8.8583048071987E-05
(PID.TID 0000.0001) %MON vort_p_mean                  =  -2.9906789944889E-19
(PID.TID 0000.0001) %MON vort_p_sd                    =   8.8431966277155E-05
(PID.TID 0000.0001) %MON surfExpan_theta_mean         =  -1.1299033376572E-04
(PID.TID 0000.0001) %MON surfExpan_salt_mean          =  -8.7020265616950E-08
(PID.TID 0000.0001) %MON surfExpan_Heat_mean          =  -7.5101569632976E-03
(PID.TID 0000.0001) %MON En_Budget_T2PE_mean          =   1.2418888693958E+00
(PID.TID 0000.0001) // =======================================================
(PID.TID 0000.0001) // End MONITOR dynamic field statistics
(PID.TID 0000.0001) // =======================================================
(PID.TID 0000.0001) DIAGSTATS_CLOSE_IO: close file: dynStDiag.0004320000.txt , unit=     9
(PID.TID 0000.0001) DIAGSTATS_CLOSE_IO: close file: phyStDiag.0004320000.txt , unit=    10
(PID.TID 0000.0001) DIAGSTATS_CLOSE_IO: close file: flxStDiag.0004320000.txt , unit=    16
(PID.TID 0000.0001) %CHECKPOINT   4320010 ckptA
(PID.TID 0000.0001)   Seconds in section "ALL                    [THE_MODEL_MAIN]":
(PID.TID 0000.0001)           User time:   56.243450066074729
(PID.TID 0000.0001)         System time:  0.46992799546569586
(PID.TID 0000.0001)     Wall clock time:   56.841569185256958
(PID.TID 0000.0001)          No. starts:           1
(PID.TID 0000.0001)           No. stops:           1
(PID.TID 0000.0001)   Seconds in section "INITIALISE_FIXED       [THE_MODEL_MAIN]":
(PID.TID 0000.0001)           User time:  0.47992699407041073
(PID.TID 0000.0001)         System time:  2.59959986433386803E-002
(PID.TID 0000.0001)     Wall clock time:  0.50707292556762695
(PID.TID 0000.0001)          No. starts:           1
(PID.TID 0000.0001)           No. stops:           1
(PID.TID 0000.0001)   Seconds in section "THE_MAIN_LOOP          [THE_MODEL_MAIN]":
(PID.TID 0000.0001)           User time:   55.763523072004318
(PID.TID 0000.0001)         System time:  0.44393199682235718
(PID.TID 0000.0001)     Wall clock time:   56.334450960159302
(PID.TID 0000.0001)          No. starts:           1
(PID.TID 0000.0001)           No. stops:           1
(PID.TID 0000.0001)   Seconds in section "INITIALISE_VARIA    [THE_MAIN_LOOP]":
(PID.TID 0000.0001)           User time:   1.5267679393291473
(PID.TID 0000.0001)         System time:  9.89850014448165894E-002
(PID.TID 0000.0001)     Wall clock time:   1.6319389343261719
(PID.TID 0000.0001)          No. starts:           1
(PID.TID 0000.0001)           No. stops:           1
(PID.TID 0000.0001)   Seconds in section "MAIN LOOP           [THE_MAIN_LOOP]":
(PID.TID 0000.0001)           User time:   54.236755132675171
(PID.TID 0000.0001)         System time:  0.34494699537754059
(PID.TID 0000.0001)     Wall clock time:   54.702479839324951
(PID.TID 0000.0001)          No. starts:           1
(PID.TID 0000.0001)           No. stops:           1
(PID.TID 0000.0001)   Seconds in section "MAIN_DO_LOOP        [THE_MAIN_LOOP]":
(PID.TID 0000.0001)           User time:   54.236755132675171
(PID.TID 0000.0001)         System time:  0.34494699537754059
(PID.TID 0000.0001)     Wall clock time:   54.702383995056152
(PID.TID 0000.0001)          No. starts:          10
(PID.TID 0000.0001)           No. stops:          10
(PID.TID 0000.0001)   Seconds in section "FORWARD_STEP        [MAIN_DO_LOOP]":
(PID.TID 0000.0001)           User time:   54.236755132675171
(PID.TID 0000.0001)         System time:  0.34494699537754059
(PID.TID 0000.0001)     Wall clock time:   54.702198982238770
(PID.TID 0000.0001)          No. starts:          10
(PID.TID 0000.0001)           No. stops:          10
(PID.TID 0000.0001)   Seconds in section "DO_STATEVARS_DIAGS  [FORWARD_STEP]":
(PID.TID 0000.0001)           User time:   4.0483922958374023
(PID.TID 0000.0001)         System time:  9.99003648757934570E-004
(PID.TID 0000.0001)     Wall clock time:   4.0586769580841064
(PID.TID 0000.0001)          No. starts:          30
(PID.TID 0000.0001)           No. stops:          30
(PID.TID 0000.0001)   Seconds in section "LOAD_FIELDS_DRIVER  [FORWARD_STEP]":
(PID.TID 0000.0001)           User time:  4.89885807037353516E-002
(PID.TID 0000.0001)         System time:   0.0000000000000000
(PID.TID 0000.0001)     Wall clock time:  4.82933521270751953E-002
(PID.TID 0000.0001)          No. starts:          10
(PID.TID 0000.0001)           No. stops:          10
(PID.TID 0000.0001)   Seconds in section "DO_ATMOSPHERIC_PHYS [FORWARD_STEP]":
(PID.TID 0000.0001)           User time:   9.7285242080688477
(PID.TID 0000.0001)         System time:  0.31395298242568970
(PID.TID 0000.0001)     Wall clock time:   10.063165187835693
(PID.TID 0000.0001)          No. starts:          10
(PID.TID 0000.0001)           No. stops:          10
(PID.TID 0000.0001)   Seconds in section "ATM_PHYS_DRIVER [DO_ATMOSPHERIC_PHYS]":
(PID.TID 0000.0001)           User time:   9.5285568237304688
(PID.TID 0000.0001)         System time:  0.31295397877693176
(PID.TID 0000.0001)     Wall clock time:   9.8630683422088623
(PID.TID 0000.0001)          No. starts:          10
(PID.TID 0000.0001)           No. stops:          10
(PID.TID 0000.0001)   Seconds in section "DO_OCEANIC_PHYS     [FORWARD_STEP]":
(PID.TID 0000.0001)           User time:  1.00040435791015625E-003
(PID.TID 0000.0001)         System time:  1.00000202655792236E-003
(PID.TID 0000.0001)     Wall clock time:  4.06050682067871094E-003
(PID.TID 0000.0001)          No. starts:          10
(PID.TID 0000.0001)           No. stops:          10
(PID.TID 0000.0001)   Seconds in section "DYNAMICS            [FORWARD_STEP]":
(PID.TID 0000.0001)           User time:   11.328274726867676
(PID.TID 0000.0001)         System time:  1.00000202655792236E-003
(PID.TID 0000.0001)     Wall clock time:   11.358206033706665
(PID.TID 0000.0001)          No. starts:          10
(PID.TID 0000.0001)           No. stops:          10
(PID.TID 0000.0001)   Seconds in section "UPDATE_R_STAR       [FORWARD_STEP]":
(PID.TID 0000.0001)           User time:  0.77388429641723633
(PID.TID 0000.0001)         System time:   0.0000000000000000
(PID.TID 0000.0001)     Wall clock time:  0.77730202674865723
(PID.TID 0000.0001)          No. starts:          10
(PID.TID 0000.0001)           No. stops:          10
(PID.TID 0000.0001)   Seconds in section "UPDATE_CG2D         [FORWARD_STEP]":
(PID.TID 0000.0001)           User time:  0.28795766830444336
(PID.TID 0000.0001)         System time:   0.0000000000000000
(PID.TID 0000.0001)     Wall clock time:  0.28889441490173340
(PID.TID 0000.0001)          No. starts:          10
(PID.TID 0000.0001)           No. stops:          10
(PID.TID 0000.0001)   Seconds in section "SOLVE_FOR_PRESSURE  [FORWARD_STEP]":
(PID.TID 0000.0001)           User time:  0.59790468215942383
(PID.TID 0000.0001)         System time:   0.0000000000000000
(PID.TID 0000.0001)     Wall clock time:  0.59636521339416504
(PID.TID 0000.0001)          No. starts:          10
(PID.TID 0000.0001)           No. stops:          10
(PID.TID 0000.0001)   Seconds in section "MOM_CORRECTION_STEP [FORWARD_STEP]":
(PID.TID 0000.0001)           User time:   5.8361139297485352
(PID.TID 0000.0001)         System time:   0.0000000000000000
(PID.TID 0000.0001)     Wall clock time:   5.8484549522399902
(PID.TID 0000.0001)          No. starts:          10
(PID.TID 0000.0001)           No. stops:          10
(PID.TID 0000.0001)   Seconds in section "SHAP_FILT_UV       [MOM_CORR_STEP]":
(PID.TID 0000.0001)           User time:   5.3491859436035156
(PID.TID 0000.0001)         System time:   0.0000000000000000
(PID.TID 0000.0001)     Wall clock time:   5.3623254299163818
(PID.TID 0000.0001)          No. starts:          10
(PID.TID 0000.0001)           No. stops:          10
(PID.TID 0000.0001)   Seconds in section "INTEGR_CONTINUITY   [FORWARD_STEP]":
(PID.TID 0000.0001)           User time:  0.91985654830932617
(PID.TID 0000.0001)         System time:   0.0000000000000000
(PID.TID 0000.0001)     Wall clock time:  0.91843795776367188
(PID.TID 0000.0001)          No. starts:          10
(PID.TID 0000.0001)           No. stops:          10
(PID.TID 0000.0001)   Seconds in section "CALC_R_STAR         [FORWARD_STEP]":
(PID.TID 0000.0001)           User time:  6.29959106445312500E-002
(PID.TID 0000.0001)         System time:   0.0000000000000000
(PID.TID 0000.0001)     Wall clock time:  6.23822212219238281E-002
(PID.TID 0000.0001)          No. starts:          10
(PID.TID 0000.0001)           No. stops:          10
(PID.TID 0000.0001)   Seconds in section "BLOCKING_EXCHANGES  [FORWARD_STEP]":
(PID.TID 0000.0001)           User time:  0.70788383483886719
(PID.TID 0000.0001)         System time:   0.0000000000000000
(PID.TID 0000.0001)     Wall clock time:  0.71203494071960449
(PID.TID 0000.0001)          No. starts:          20
(PID.TID 0000.0001)           No. stops:          20
(PID.TID 0000.0001)   Seconds in section "THERMODYNAMICS      [FORWARD_STEP]":
(PID.TID 0000.0001)           User time:   11.931182861328125
(PID.TID 0000.0001)         System time:  1.00000202655792236E-003
(PID.TID 0000.0001)     Wall clock time:   11.955598354339600
(PID.TID 0000.0001)          No. starts:          10
(PID.TID 0000.0001)           No. stops:          10
(PID.TID 0000.0001)   Seconds in section "TRC_CORRECTION_STEP [FORWARD_STEP]":
(PID.TID 0000.0001)           User time:   2.1036868095397949
(PID.TID 0000.0001)         System time:   0.0000000000000000
(PID.TID 0000.0001)     Wall clock time:   2.1070744991302490
(PID.TID 0000.0001)          No. starts:          10
(PID.TID 0000.0001)           No. stops:          10
(PID.TID 0000.0001)   Seconds in section "SHAP_FILT_TS       [TRC_CORR_STEP]":
(PID.TID 0000.0001)           User time:   2.1036868095397949
(PID.TID 0000.0001)         System time:   0.0000000000000000
(PID.TID 0000.0001)     Wall clock time:   2.1068558692932129
(PID.TID 0000.0001)          No. starts:          10
(PID.TID 0000.0001)           No. stops:          10
(PID.TID 0000.0001)   Seconds in section "MONITOR             [FORWARD_STEP]":
(PID.TID 0000.0001)           User time:   5.5681505203247070
(PID.TID 0000.0001)         System time:  9.99003648757934570E-004
(PID.TID 0000.0001)     Wall clock time:   5.5842063426971436
(PID.TID 0000.0001)          No. starts:          10
(PID.TID 0000.0001)           No. stops:          10
(PID.TID 0000.0001)   Seconds in section "DO_THE_MODEL_IO     [FORWARD_STEP]":
(PID.TID 0000.0001)           User time:  0.12398147583007813
(PID.TID 0000.0001)         System time:  1.09980106353759766E-002
(PID.TID 0000.0001)     Wall clock time:  0.13563728332519531
(PID.TID 0000.0001)          No. starts:          10
(PID.TID 0000.0001)           No. stops:          10
(PID.TID 0000.0001)   Seconds in section "DO_WRITE_PICKUP     [FORWARD_STEP]":
(PID.TID 0000.0001)           User time:  0.16497421264648438
(PID.TID 0000.0001)         System time:  1.49979889392852783E-002
(PID.TID 0000.0001)     Wall clock time:  0.18119001388549805
(PID.TID 0000.0001)          No. starts:          10
(PID.TID 0000.0001)           No. stops:          10
(PID.TID 0000.0001) // ======================================================
(PID.TID 0000.0001) // Tile <-> Tile communication statistics
(PID.TID 0000.0001) // ======================================================
(PID.TID 0000.0001) // o Tile number: 000001
(PID.TID 0000.0001) //         No. X exchanges =              0
(PID.TID 0000.0001) //            Max. X spins =              0
(PID.TID 0000.0001) //            Min. X spins =     1000000000
(PID.TID 0000.0001) //          Total. X spins =              0
(PID.TID 0000.0001) //            Avg. X spins =       0.00E+00
(PID.TID 0000.0001) //         No. Y exchanges =              0
(PID.TID 0000.0001) //            Max. Y spins =              0
(PID.TID 0000.0001) //            Min. Y spins =     1000000000
(PID.TID 0000.0001) //          Total. Y spins =              0
(PID.TID 0000.0001) //            Avg. Y spins =       0.00E+00
(PID.TID 0000.0001) // o Tile number: 000002
(PID.TID 0000.0001) //         No. X exchanges =              0
(PID.TID 0000.0001) //            Max. X spins =              0
(PID.TID 0000.0001) //            Min. X spins =     1000000000
(PID.TID 0000.0001) //          Total. X spins =              0
(PID.TID 0000.0001) //            Avg. X spins =       0.00E+00
(PID.TID 0000.0001) //         No. Y exchanges =              0
(PID.TID 0000.0001) //            Max. Y spins =              0
(PID.TID 0000.0001) //            Min. Y spins =     1000000000
(PID.TID 0000.0001) //          Total. Y spins =              0
(PID.TID 0000.0001) //            Avg. Y spins =       0.00E+00
(PID.TID 0000.0001) // o Tile number: 000003
(PID.TID 0000.0001) //         No. X exchanges =              0
(PID.TID 0000.0001) //            Max. X spins =              0
(PID.TID 0000.0001) //            Min. X spins =     1000000000
(PID.TID 0000.0001) //          Total. X spins =              0
(PID.TID 0000.0001) //            Avg. X spins =       0.00E+00
(PID.TID 0000.0001) //         No. Y exchanges =              0
(PID.TID 0000.0001) //            Max. Y spins =              0
(PID.TID 0000.0001) //            Min. Y spins =     1000000000
(PID.TID 0000.0001) //          Total. Y spins =              0
(PID.TID 0000.0001) //            Avg. Y spins =       0.00E+00
(PID.TID 0000.0001) // o Tile number: 000004
(PID.TID 0000.0001) //         No. X exchanges =              0
(PID.TID 0000.0001) //            Max. X spins =              0
(PID.TID 0000.0001) //            Min. X spins =     1000000000
(PID.TID 0000.0001) //          Total. X spins =              0
(PID.TID 0000.0001) //            Avg. X spins =       0.00E+00
(PID.TID 0000.0001) //         No. Y exchanges =              0
(PID.TID 0000.0001) //            Max. Y spins =              0
(PID.TID 0000.0001) //            Min. Y spins =     1000000000
(PID.TID 0000.0001) //          Total. Y spins =              0
(PID.TID 0000.0001) //            Avg. Y spins =       0.00E+00
(PID.TID 0000.0001) // o Tile number: 000005
(PID.TID 0000.0001) //         No. X exchanges =              0
(PID.TID 0000.0001) //            Max. X spins =              0
(PID.TID 0000.0001) //            Min. X spins =     1000000000
(PID.TID 0000.0001) //          Total. X spins =              0
(PID.TID 0000.0001) //            Avg. X spins =       0.00E+00
(PID.TID 0000.0001) //         No. Y exchanges =              0
(PID.TID 0000.0001) //            Max. Y spins =              0
(PID.TID 0000.0001) //            Min. Y spins =     1000000000
(PID.TID 0000.0001) //          Total. Y spins =              0
(PID.TID 0000.0001) //            Avg. Y spins =       0.00E+00
(PID.TID 0000.0001) // o Tile number: 000006
(PID.TID 0000.0001) //         No. X exchanges =              0
(PID.TID 0000.0001) //            Max. X spins =              0
(PID.TID 0000.0001) //            Min. X spins =     1000000000
(PID.TID 0000.0001) //          Total. X spins =              0
(PID.TID 0000.0001) //            Avg. X spins =       0.00E+00
(PID.TID 0000.0001) //         No. Y exchanges =              0
(PID.TID 0000.0001) //            Max. Y spins =              0
(PID.TID 0000.0001) //            Min. Y spins =     1000000000
(PID.TID 0000.0001) //          Total. Y spins =              0
(PID.TID 0000.0001) //            Avg. Y spins =       0.00E+00
(PID.TID 0000.0001) // o Thread number: 000001
(PID.TID 0000.0001) //            No. barriers =           6070
(PID.TID 0000.0001) //      Max. barrier spins =              1
(PID.TID 0000.0001) //      Min. barrier spins =              1
(PID.TID 0000.0001) //     Total barrier spins =           6070
(PID.TID 0000.0001) //      Avg. barrier spins =       1.00E+00
PROGRAM MAIN: Execution ended Normally
