(PID.TID 0000.0001) 
(PID.TID 0000.0001) // ======================================================
(PID.TID 0000.0001) //                      MITgcm UV
(PID.TID 0000.0001) //                      =========
(PID.TID 0000.0001) // ======================================================
(PID.TID 0000.0001) // execution environment starting up...
(PID.TID 0000.0001) 
(PID.TID 0000.0001) // MITgcmUV version:  checkpoint64j
(PID.TID 0000.0001) // Build user:        jmc
(PID.TID 0000.0001) // Build host:        baudelaire
(PID.TID 0000.0001) // Build date:        Sun Jul  7 19:50:13 EDT 2013
(PID.TID 0000.0001) 
(PID.TID 0000.0001) // =======================================================
(PID.TID 0000.0001) // Execution Environment parameter file "eedata"
(PID.TID 0000.0001) // =======================================================
(PID.TID 0000.0001) ># Example "eedata" file
(PID.TID 0000.0001) ># Lines beginning "#" are comments
(PID.TID 0000.0001) ># nTx - No. threads per process in X
(PID.TID 0000.0001) ># nTy - No. threads per process in Y
(PID.TID 0000.0001) > &EEPARMS
(PID.TID 0000.0001) > useCubedSphereExchange=.TRUE.,
(PID.TID 0000.0001) > nTx=1,
(PID.TID 0000.0001) > nTy=1,
(PID.TID 0000.0001) >#debugMode=.TRUE.,
(PID.TID 0000.0001) > /
(PID.TID 0000.0001) ># Note: Some systems use & as the namelist terminator (as shown here).
(PID.TID 0000.0001) >#       Other systems use a / character.
(PID.TID 0000.0001) 
(PID.TID 0000.0001) // =======================================================
(PID.TID 0000.0001) // Computational Grid Specification ( see files "SIZE.h" )
(PID.TID 0000.0001) //                                  ( and "eedata"       )
(PID.TID 0000.0001) // =======================================================
(PID.TID 0000.0001)      nPx =    1 ; /* No. processes in X */
(PID.TID 0000.0001)      nPy =    1 ; /* No. processes in Y */
(PID.TID 0000.0001)      nSx =    6 ; /* No. tiles in X per process */
(PID.TID 0000.0001)      nSy =    1 ; /* No. tiles in Y per process */
(PID.TID 0000.0001)      sNx =   32 ; /* Tile size in X */
(PID.TID 0000.0001)      sNy =   32 ; /* Tile size in Y */
(PID.TID 0000.0001)      OLx =    4 ; /* Tile overlap distance in X */
(PID.TID 0000.0001)      OLy =    4 ; /* Tile overlap distance in Y */
(PID.TID 0000.0001)      nTx =    1 ; /* No. threads in X per process */
(PID.TID 0000.0001)      nTy =    1 ; /* No. threads in Y per process */
(PID.TID 0000.0001)       Nr =   26 ; /* No. levels in the vertical   */
(PID.TID 0000.0001)       Nx =  192 ; /* Total domain size in X ( = nPx*nSx*sNx ) */
(PID.TID 0000.0001)       Ny =   32 ; /* Total domain size in Y ( = nPy*nSy*sNy ) */
(PID.TID 0000.0001)   nTiles =    6 ; /* Total no. tiles per process ( = nSx*nSy ) */
(PID.TID 0000.0001)   nProcs =    1 ; /* Total no. processes ( = nPx*nPy ) */
(PID.TID 0000.0001) nThreads =    1 ; /* Total no. threads per process ( = nTx*nTy ) */
(PID.TID 0000.0001) usingMPI =    F ; /* Flag used to control whether MPI is in use */
(PID.TID 0000.0001)                   /*  note: To execute a program with MPI calls */
(PID.TID 0000.0001)                   /*  it must be launched appropriately e.g     */
(PID.TID 0000.0001)                   /*  "mpirun -np 64 ......"                    */
(PID.TID 0000.0001) useCoupler=    F ;/* Flag used to control communications with   */
(PID.TID 0000.0001)                   /*  other model components, through a coupler */
(PID.TID 0000.0001) debugMode =    F ; /* print debug msg. (sequence of S/R calls)  */
(PID.TID 0000.0001) printMapIncludesZeros=    F ; /* print zeros in Std.Output maps */
(PID.TID 0000.0001) maxLengthPrt1D=   65 /* maxLength of 1D array printed to StdOut */
(PID.TID 0000.0001) 
(PID.TID 0000.0001) // ======================================================
(PID.TID 0000.0001) // Mapping of tiles to threads
(PID.TID 0000.0001) // ======================================================
(PID.TID 0000.0001) // -o- Thread   1, tiles (   1:   6,   1:   1)
(PID.TID 0000.0001) 
(PID.TID 0000.0001) W2_READPARMS: file data.exch2 not found
(PID.TID 0000.0001) => use W2_EXCH2 default: regular 6-facets Cube
(PID.TID 0000.0001) W2_useE2ioLayOut=    T ;/* T: use Exch2 glob IO map; F: use model default */
(PID.TID 0000.0001) W2_mapIO        =  -1 ; /* select option for Exch2 global-IO map */
(PID.TID 0000.0001) W2_printMsg     =  -1 ; /* select option for printing information */
(PID.TID 0000.0001) ===== Start setting W2 TOPOLOGY:
(PID.TID 0000.0001)  write to log-file: w2_tile_topology.0000.log
(PID.TID 0000.0001) =====       setting W2 TOPOLOGY: Done
(PID.TID 0000.0001) 
(PID.TID 0000.0001)  INI_PARMS: opening model parameter file "data"
(PID.TID 0000.0001)  OPEN_COPY_DATA_FILE: opening file data
(PID.TID 0000.0001) // =======================================================
(PID.TID 0000.0001) // Parameter file "data"
(PID.TID 0000.0001) // =======================================================
(PID.TID 0000.0001) ># ====================
(PID.TID 0000.0001) ># | Model parameters |
(PID.TID 0000.0001) ># ====================
(PID.TID 0000.0001) >#
(PID.TID 0000.0001) ># Continuous equation parameters
(PID.TID 0000.0001) > &PARM01
(PID.TID 0000.0001) >#- mean theta* from H&S, isothermal (T=200.K) above p=150.mb:
(PID.TID 0000.0001) > tRef= 295.1, 295.2, 295.4, 295.6, 296.0, 296.6, 297.3, 298.2, 299.3, 300.6,
(PID.TID 0000.0001) >       302.4, 305.9, 311.8, 321.8, 338.3, 359.5, 382.8, 408.6, 437.5, 470.6,
(PID.TID 0000.0001) >       509.2, 555.8, 614.9, 696.3, 827.2, 1153.6,
(PID.TID 0000.0001) >#tRef=26*280.,
(PID.TID 0000.0001) > sRef=26*0.,
(PID.TID 0000.0001) > viscAr=0.E1,
(PID.TID 0000.0001) > viscAh=0.E6,
(PID.TID 0000.0001) > viscA4=0.E17,
(PID.TID 0000.0001) > no_slip_sides=.FALSE.,
(PID.TID 0000.0001) > no_slip_bottom=.FALSE.,
(PID.TID 0000.0001) > diffKhT=0.E3,
(PID.TID 0000.0001) > diffKrT=0.,
(PID.TID 0000.0001) > diffK4T=0.E17,
(PID.TID 0000.0001) > diffKrS=0.E2,
(PID.TID 0000.0001) > diffKhS=0.E3,
(PID.TID 0000.0001) > diffK4S=0.E17,
(PID.TID 0000.0001) > buoyancyRelation='ATMOSPHERIC',
(PID.TID 0000.0001) > eosType='IDEALG',
(PID.TID 0000.0001) > atm_Cp=1004.64,
(PID.TID 0000.0001) > atm_Rq=0.6078,
(PID.TID 0000.0001) > Integr_GeoPot=2,
(PID.TID 0000.0001) > selectFindRoSurf=1,
(PID.TID 0000.0001) > gravity=9.80,
(PID.TID 0000.0001) > rhonil=1.0,
(PID.TID 0000.0001) > rhoConst=1.0,
(PID.TID 0000.0001) > rigidLid=.FALSE.,
(PID.TID 0000.0001) > implicitFreeSurface=.TRUE.,
(PID.TID 0000.0001) > exactConserv=.TRUE.,
(PID.TID 0000.0001) > select_rStar=2,
(PID.TID 0000.0001) > nonlinFreeSurf=4,
(PID.TID 0000.0001) > hFacInf=0.2,
(PID.TID 0000.0001) > hFacSup=2.0,
(PID.TID 0000.0001) > hFacMin=1.0,
(PID.TID 0000.0001) > uniformLin_PhiSurf=.FALSE.,
(PID.TID 0000.0001) > vectorInvariantMomentum=.TRUE.,
(PID.TID 0000.0001) > useAbsVorticity=.TRUE.,
(PID.TID 0000.0001) > selectVortScheme=3,
(PID.TID 0000.0001) > selectKEscheme=3,
(PID.TID 0000.0001) > addFrictionHeating=.TRUE.,
(PID.TID 0000.0001) >#tempAdvScheme=77,
(PID.TID 0000.0001) > saltAdvScheme=77,
(PID.TID 0000.0001) > staggerTimeStep=.TRUE.,
(PID.TID 0000.0001) > readBinaryPrec=64,
(PID.TID 0000.0001) > writeBinaryPrec=64,
(PID.TID 0000.0001) >#globalFiles=.TRUE.,
(PID.TID 0000.0001) > useSingleCpuIO=.TRUE.,
(PID.TID 0000.0001) > /
(PID.TID 0000.0001) >
(PID.TID 0000.0001) ># Elliptic solver parameters
(PID.TID 0000.0001) > &PARM02
(PID.TID 0000.0001) > cg2dMaxIters=200,
(PID.TID 0000.0001) > cg2dTargetResWunit=1.E-17,
(PID.TID 0000.0001) > /
(PID.TID 0000.0001) >
(PID.TID 0000.0001) ># Time stepping parameters
(PID.TID 0000.0001) > &PARM03
(PID.TID 0000.0001) > nIter0=0,
(PID.TID 0000.0001) > nTimeSteps=10,
(PID.TID 0000.0001) >#endTime=311040000.,
(PID.TID 0000.0001) >#endTime=5184000.,
(PID.TID 0000.0001) > deltaT=384.,
(PID.TID 0000.0001) > abEps=0.1,
(PID.TID 0000.0001) > forcing_In_AB=.FALSE.,
(PID.TID 0000.0001) > cAdjFreq=0.,
(PID.TID 0000.0001) >#- long run (> 1.yr):
(PID.TID 0000.0001) > chkptFreq =15552000.,
(PID.TID 0000.0001) > pChkptFreq=31104000.,
(PID.TID 0000.0001) > dumpFreq  =15552000.,
(PID.TID 0000.0001) > monitorFreq= 864000.,
(PID.TID 0000.0001) >#- short run (~ months):
(PID.TID 0000.0001) >#chkptFreq = 864000.,
(PID.TID 0000.0001) >#pChkptFreq=2592000.,
(PID.TID 0000.0001) >#dumpFreq  = 432000.,
(PID.TID 0000.0001) >#monitorFreq= 43200.,
(PID.TID 0000.0001) >#- short test:
(PID.TID 0000.0001) >#dumpFreq   =1.,
(PID.TID 0000.0001) > monitorFreq=1.,
(PID.TID 0000.0001) > /
(PID.TID 0000.0001) >
(PID.TID 0000.0001) ># Gridding parameters
(PID.TID 0000.0001) > &PARM04
(PID.TID 0000.0001) > usingCurvilinearGrid=.TRUE.,
(PID.TID 0000.0001) > horizGridFile='dxC1_dXYa',
(PID.TID 0000.0001) > radius_fromHorizGrid=6370.E3,
(PID.TID 0000.0001) >#delR=25*40.E2,
(PID.TID 0000.0001) > delR= 1500., 2122., 3000., 4242., 6000., 7800., 9100., 9400., 9280., 8400.,
(PID.TID 0000.0001) >       6980., 5800., 4820., 4004., 3328., 2766., 2298., 1910., 1586., 1318.,
(PID.TID 0000.0001) >       1096.,  910.,  756.,  628.,  522.,  434.,
(PID.TID 0000.0001) > Ro_SeaLevel=1.E5,
(PID.TID 0000.0001) > /
(PID.TID 0000.0001) >
(PID.TID 0000.0001) ># Input datasets
(PID.TID 0000.0001) > &PARM05
(PID.TID 0000.0001) > hydrogThetaFile='ini_theta_26l.bin',
(PID.TID 0000.0001) > hydrogSaltFile ='ini_specQ_26l.bin',
(PID.TID 0000.0001) > /
(PID.TID 0000.0001) 
(PID.TID 0000.0001)  INI_PARMS ; starts to read PARM01
(PID.TID 0000.0001)  INI_PARMS ; read PARM01 : OK
(PID.TID 0000.0001)  INI_PARMS ; starts to read PARM02
(PID.TID 0000.0001)  INI_PARMS ; read PARM02 : OK
(PID.TID 0000.0001)  INI_PARMS ; starts to read PARM03
(PID.TID 0000.0001)  INI_PARMS ; read PARM03 : OK
(PID.TID 0000.0001)  INI_PARMS ; starts to read PARM04
(PID.TID 0000.0001)  INI_PARMS ; read PARM04 : OK
(PID.TID 0000.0001)  INI_PARMS ; starts to read PARM05
(PID.TID 0000.0001)  INI_PARMS ; read PARM05 : OK
(PID.TID 0000.0001)  INI_PARMS: finished reading file "data"
(PID.TID 0000.0001)  PACKAGES_BOOT: opening data.pkg
(PID.TID 0000.0001)  OPEN_COPY_DATA_FILE: opening file data.pkg
(PID.TID 0000.0001) // =======================================================
(PID.TID 0000.0001) // Parameter file "data.pkg"
(PID.TID 0000.0001) // =======================================================
(PID.TID 0000.0001) ># Packages
(PID.TID 0000.0001) > &PACKAGES
(PID.TID 0000.0001) > useSHAP_FILT=.TRUE.,
(PID.TID 0000.0001) > useDiagnostics=.TRUE.,
(PID.TID 0000.0001) > useAtm_Phys=.TRUE.,
(PID.TID 0000.0001) >#useMNC = .TRUE.,
(PID.TID 0000.0001) > /
(PID.TID 0000.0001) 
(PID.TID 0000.0001)  PACKAGES_BOOT: finished reading data.pkg
(PID.TID 0000.0001)  SHAP_FILT_READPARMS: opening data.shap
(PID.TID 0000.0001)  OPEN_COPY_DATA_FILE: opening file data.shap
(PID.TID 0000.0001) // =======================================================
(PID.TID 0000.0001) // Parameter file "data.shap"
(PID.TID 0000.0001) // =======================================================
(PID.TID 0000.0001) ># Shapiro Filter parameters
(PID.TID 0000.0001) > &SHAP_PARM01
(PID.TID 0000.0001) > shap_filt_uvStar=.FALSE.,
(PID.TID 0000.0001) > shap_filt_TrStagg=.TRUE.,
(PID.TID 0000.0001) > Shap_funct=2,
(PID.TID 0000.0001) > nShapT=4,
(PID.TID 0000.0001) > nShapS=0,
(PID.TID 0000.0001) > nShapUV=4,
(PID.TID 0000.0001) > nShapTrPhys=1,
(PID.TID 0000.0001) > nShapUVPhys=0,
(PID.TID 0000.0001) > Shap_TrLength=140000.,
(PID.TID 0000.0001) >#Shap_TrLength=115000.,
(PID.TID 0000.0001) >#Shap_uvLength=110000.,
(PID.TID 0000.0001) >#Shap_Trtau=5400.,
(PID.TID 0000.0001) >#Shap_uvtau=5400.,
(PID.TID 0000.0001) > Shap_Trtau=1800.,
(PID.TID 0000.0001) > Shap_uvtau= 900.,
(PID.TID 0000.0001) > /
(PID.TID 0000.0001) >
(PID.TID 0000.0001) 
(PID.TID 0000.0001)  SHAP_FILT_READPARMS: finished reading data.shap
(PID.TID 0000.0001) Shap_funct =   /* select Shapiro filter function */
(PID.TID 0000.0001)                       2
(PID.TID 0000.0001)     ;
(PID.TID 0000.0001) nShapT =   /* power of Shapiro filter for Temperat */
(PID.TID 0000.0001)                       4
(PID.TID 0000.0001)     ;
(PID.TID 0000.0001) nShapS =   /* power of Shapiro filter for Salinity */
(PID.TID 0000.0001)                       0
(PID.TID 0000.0001)     ;
(PID.TID 0000.0001) nShapUV =   /* power of Shapiro filter for momentum */
(PID.TID 0000.0001)                       4
(PID.TID 0000.0001)     ;
(PID.TID 0000.0001) shap_filt_uvStar = /* apply filter before Press. Solver */
(PID.TID 0000.0001)                   F
(PID.TID 0000.0001)     ;
(PID.TID 0000.0001) shap_filt_TrStagg = /* filter T,S before calc PhiHyd (staggerTimeStep) */
(PID.TID 0000.0001)                   T
(PID.TID 0000.0001)     ;
(PID.TID 0000.0001) Shap_alwaysExchUV = /* always exch(U,V)    nShapUV times*/
(PID.TID 0000.0001)                   F
(PID.TID 0000.0001)     ;
(PID.TID 0000.0001) Shap_alwaysExchTr = /* always exch(Tracer) nShapTr times*/
(PID.TID 0000.0001)                   F
(PID.TID 0000.0001)     ;
(PID.TID 0000.0001) nShapTrPhys =   /* power of physical-space filter (Tracer) */
(PID.TID 0000.0001)                       1
(PID.TID 0000.0001)     ;
(PID.TID 0000.0001) nShapUVPhys =   /* power of physical-space filter (Momentum) */
(PID.TID 0000.0001)                       0
(PID.TID 0000.0001)     ;
(PID.TID 0000.0001) Shap_Trtau =   /* time scale of Shapiro filter (Tracer) */
(PID.TID 0000.0001)                 1.800000000000000E+03
(PID.TID 0000.0001)     ;
(PID.TID 0000.0001) Shap_TrLength =   /* Length scale of Shapiro filter (Tracer) */
(PID.TID 0000.0001)                 1.400000000000000E+05
(PID.TID 0000.0001)     ;
(PID.TID 0000.0001) Shap_uvtau =   /* time scale of Shapiro filter (Momentum) */
(PID.TID 0000.0001)                 9.000000000000000E+02
(PID.TID 0000.0001)     ;
(PID.TID 0000.0001) Shap_uvLength =   /* Length scale of Shapiro filter (Momentum) */
(PID.TID 0000.0001)                 0.000000000000000E+00
(PID.TID 0000.0001)     ;
(PID.TID 0000.0001) Shap_noSlip =  /* No-slip parameter (0=Free-slip ; 1=No-slip)*/
(PID.TID 0000.0001)                 0.000000000000000E+00
(PID.TID 0000.0001)     ;
(PID.TID 0000.0001) Shap_diagFreq =   /* Frequency^-1 for diagnostic output (s)*/
(PID.TID 0000.0001)                 0.000000000000000E+00
(PID.TID 0000.0001)     ;
(PID.TID 0000.0001) ATM_PHYS_READPARMS: opening data.atm_phys
(PID.TID 0000.0001)  OPEN_COPY_DATA_FILE: opening file data.atm_phys
(PID.TID 0000.0001) // =======================================================
(PID.TID 0000.0001) // Parameter file "data.atm_phys"
(PID.TID 0000.0001) // =======================================================
(PID.TID 0000.0001) >#
(PID.TID 0000.0001) > &ATM_PHYS_PARM01
(PID.TID 0000.0001) >#atmPhys_addTendT=.FALSE.,
(PID.TID 0000.0001) >#atmPhys_addTendS=.FALSE.,
(PID.TID 0000.0001) >#atmPhys_addTendU=.FALSE.,
(PID.TID 0000.0001) >#atmPhys_addTendV=.FALSE.,
(PID.TID 0000.0001) > atmPhys_tauDampUV = 86400.,
(PID.TID 0000.0001) > atmPhys_dampUVfac = 20*0., 0.125, 0.25, 0.5, 1., 2., 4.,
(PID.TID 0000.0001) >#- initial SST file:
(PID.TID 0000.0001) > atmPhys_SSTFile='SST_APE_1.bin',
(PID.TID 0000.0001) >#- Q-flux file:
(PID.TID 0000.0001) >#atmPhys_QflxFile='Qflux_w90.bin',
(PID.TID 0000.0001) >#- update SST (default = False = keep the same SST):
(PID.TID 0000.0001) > atmPhys_stepSST=.TRUE.,
(PID.TID 0000.0001) > /
(PID.TID 0000.0001) 
(PID.TID 0000.0001) ATM_PHYS_READPARMS: finished reading data.atm_phys
(PID.TID 0000.0001)  DIAGNOSTICS_READPARMS: opening data.diagnostics
(PID.TID 0000.0001)  OPEN_COPY_DATA_FILE: opening file data.diagnostics
(PID.TID 0000.0001) // =======================================================
(PID.TID 0000.0001) // Parameter file "data.diagnostics"
(PID.TID 0000.0001) // =======================================================
(PID.TID 0000.0001) ># Diagnostic Package Choices
(PID.TID 0000.0001) >#--------------------
(PID.TID 0000.0001) >#  dumpAtLast (logical): always write output at the end of simulation (default=F)
(PID.TID 0000.0001) >#  diag_mnc   (logical): write to NetCDF files (default=useMNC)
(PID.TID 0000.0001) >#--for each output-stream:
(PID.TID 0000.0001) >#  fileName(n) : prefix of the output file name (max 80c long) for outp.stream n
(PID.TID 0000.0001) >#  frequency(n):< 0 : write snap-shot output every |frequency| seconds
(PID.TID 0000.0001) >#               > 0 : write time-average output every frequency seconds
(PID.TID 0000.0001) >#  timePhase(n)     : write at time = timePhase + multiple of |frequency|
(PID.TID 0000.0001) >#    averagingFreq  : frequency (in s) for periodic averaging interval
(PID.TID 0000.0001) >#    averagingPhase : phase     (in s) for periodic averaging interval
(PID.TID 0000.0001) >#    repeatCycle    : number of averaging intervals in 1 cycle
(PID.TID 0000.0001) >#  levels(:,n) : list of levels to write to file (Notes: declared as REAL)
(PID.TID 0000.0001) >#                when this entry is missing, select all common levels of this list
(PID.TID 0000.0001) >#  fields(:,n) : list of selected diagnostics fields (8.c) in outp.stream n
(PID.TID 0000.0001) >#                (see "available_diagnostics.log" file for the full list of diags)
(PID.TID 0000.0001) >#  missing_value(n) : missing value for real-type fields in output file "n"
(PID.TID 0000.0001) >#  fileFlags(n)     : specific code (8c string) for output file "n"
(PID.TID 0000.0001) >#--------------------
(PID.TID 0000.0001) > &DIAGNOSTICS_LIST
(PID.TID 0000.0001) ># diag_mnc     = .FALSE.,
(PID.TID 0000.0001) >#--
(PID.TID 0000.0001) >  fields(1:15,1) = 'ETAN    ','ETANSQ  ','DETADT2 ','AtPhCnvP','AtPhLscP',
(PID.TID 0000.0001) >                   'AtPhSens','AtPhEvap','AtPhTauX','AtPhTauY',
(PID.TID 0000.0001) >                   'AtPh_SST','AtPhInSR','AtPhOLR ',
(PID.TID 0000.0001) >                   'AtPhNSSR','AtPhDSLR','AtPhUSLR',
(PID.TID 0000.0001) >   fileName(1) = 'surfDiag',
(PID.TID 0000.0001) ># fileFlags(1) = 'D       ',
(PID.TID 0000.0001) ># frequency(1) = 31104000.,
(PID.TID 0000.0001) >  frequency(1) = 432000.,
(PID.TID 0000.0001) >  fields(1:22,2) = 'UVEL    ','VVEL    ','WVEL    ','THETA   ','SALT    ',
(PID.TID 0000.0001) >                   'UVELSQ  ','VVELSQ  ','WVELSQ  ','THETASQ ','SALTSQ  ',
(PID.TID 0000.0001) >                   'UVELMASS','VVELMASS','UV_VEL_C','RELHUM  ',
(PID.TID 0000.0001) >                   'AtPhdTdt','AtPhdQdt','AtPhdUdt','AtPhdVdt',
(PID.TID 0000.0001) >                   'AtPhdtTg','AtPhdtQg','AtPhDifT','AtPhDifM',
(PID.TID 0000.0001) >#                  'SHAP_dU ','MoistCor',
(PID.TID 0000.0001) >   fileName(2) = 'dynDiag',
(PID.TID 0000.0001) ># frequency(2) = 31104000.,
(PID.TID 0000.0001) >  frequency(2) = 432000.,
(PID.TID 0000.0001) > /
(PID.TID 0000.0001) >
(PID.TID 0000.0001) >#--------------------
(PID.TID 0000.0001) ># Parameter for Diagnostics of per level statistics:
(PID.TID 0000.0001) >#--------------------
(PID.TID 0000.0001) >#  diagSt_mnc (logical): write stat-diags to NetCDF files (default=diag_mnc)
(PID.TID 0000.0001) >#  diagSt_regMaskFile : file containing the region-mask to read-in
(PID.TID 0000.0001) >#  nSetRegMskFile   : number of region-mask sets within the region-mask file
(PID.TID 0000.0001) >#  set_regMask(i)   : region-mask set-index that identifies the region "i"
(PID.TID 0000.0001) >#  val_regMask(i)   : region "i" identifier value in the region mask
(PID.TID 0000.0001) >#--for each output-stream:
(PID.TID 0000.0001) >#  stat_fName(n) : prefix of the output file name (max 80c long) for outp.stream n
(PID.TID 0000.0001) >#  stat_freq(n):< 0 : write snap-shot output every |stat_freq| seconds
(PID.TID 0000.0001) >#               > 0 : write time-average output every stat_freq seconds
(PID.TID 0000.0001) >#  stat_phase(n)    : write at time = stat_phase + multiple of |stat_freq|
(PID.TID 0000.0001) >#  stat_region(:,n) : list of "regions" (default: 1 region only=global)
(PID.TID 0000.0001) >#  stat_fields(:,n) : list of selected diagnostics fields (8.c) in outp.stream n
(PID.TID 0000.0001) >#                (see "available_diagnostics.log" file for the full list of diags)
(PID.TID 0000.0001) >#--------------------
(PID.TID 0000.0001) > &DIAG_STATIS_PARMS
(PID.TID 0000.0001) > stat_fields(1:11,1) = 'ETAN    ','THETA   ','SALT    ','RELHUM  ',
(PID.TID 0000.0001) >                       'UE_VEL_C','VN_VEL_C','WVEL    ',
(PID.TID 0000.0001) >                       'AtPhdTdt','AtPhdQdt','AtPhdUdt','AtPhdVdt',
(PID.TID 0000.0001) >  stat_fName(1) = 'dynStDiag',
(PID.TID 0000.0001) >#  stat_freq(1) = 432000.,
(PID.TID 0000.0001) >   stat_freq(1) = 43200.,
(PID.TID 0000.0001) >  stat_phase(1) = 0.,
(PID.TID 0000.0001) > stat_fields(1:7,2)  = 'AtPhDifT','AtPhDifM','AtPhDisH',
(PID.TID 0000.0001) >                       'AtPhdtTg','AtPhdtQg','SHAP_dKE','MoistCor',
(PID.TID 0000.0001) >  stat_fName(2) = 'diffStDiag',
(PID.TID 0000.0001) >#  stat_freq(2) = 432000.,
(PID.TID 0000.0001) >   stat_freq(2) = 43200.,
(PID.TID 0000.0001) ># stat_phase(2) = 0.,
(PID.TID 0000.0001) > stat_fields(1:12,3) = 'AtPhSens','AtPhEvap','AtPhTauX','AtPhTauY',
(PID.TID 0000.0001) >                       'AtPhCnvP','AtPhLscP',
(PID.TID 0000.0001) >                       'AtPh_SST','AtPhInSR','AtPhOLR ',
(PID.TID 0000.0001) >                       'AtPhNSSR','AtPhDSLR','AtPhUSLR',
(PID.TID 0000.0001) >  stat_fName(3) = 'flxStDiag',
(PID.TID 0000.0001) >#  stat_freq(3) = 432000.,
(PID.TID 0000.0001) >   stat_freq(3) = 43200.,
(PID.TID 0000.0001) >  stat_phase(3) = 0.,
(PID.TID 0000.0001) > /
(PID.TID 0000.0001) >
(PID.TID 0000.0001) 
(PID.TID 0000.0001) S/R DIAGNOSTICS_READPARMS, read namelist "diagnostics_list": start
(PID.TID 0000.0001) S/R DIAGNOSTICS_READPARMS, read namelist "diagnostics_list": OK
(PID.TID 0000.0001) S/R DIAGNOSTICS_READPARMS, read namelist "DIAG_STATIS_PARMS": start
(PID.TID 0000.0001) S/R DIAGNOSTICS_READPARMS, read namelist "DIAG_STATIS_PARMS": OK
(PID.TID 0000.0001)  DIAGNOSTICS_READPARMS: global parameter summary:
(PID.TID 0000.0001)  dumpAtLast = /* always write time-ave diags at the end */
(PID.TID 0000.0001)                   F
(PID.TID 0000.0001)     ;
(PID.TID 0000.0001)  diag_mnc =   /* write NetCDF output files */
(PID.TID 0000.0001)                   F
(PID.TID 0000.0001)     ;
(PID.TID 0000.0001)  useMissingValue = /* put MissingValue where mask = 0 */
(PID.TID 0000.0001)                   F
(PID.TID 0000.0001)     ;
(PID.TID 0000.0001)  diagCG_maxIters = /* max number of iters in diag_cg2d */
(PID.TID 0000.0001)                     200
(PID.TID 0000.0001)     ;
(PID.TID 0000.0001)  diagCG_resTarget = /* residual target for diag_cg2d */
(PID.TID 0000.0001)                 1.000000000000000E-07
(PID.TID 0000.0001)     ;
(PID.TID 0000.0001) -----------------------------------------------------
(PID.TID 0000.0001)  DIAGNOSTICS_READPARMS: active diagnostics summary:
(PID.TID 0000.0001) -----------------------------------------------------
(PID.TID 0000.0001) Creating Output Stream: surfDiag
(PID.TID 0000.0001) Output Frequency:     432000.000000 ; Phase:           0.000000
(PID.TID 0000.0001)  Averaging Freq.:     432000.000000 , Phase:           0.000000 , Cycle:   1
(PID.TID 0000.0001)  missing value: -9.990000000000E+02
(PID.TID 0000.0001)  Levels:    will be set later
(PID.TID 0000.0001)  Fields:    ETAN     ETANSQ   DETADT2  AtPhCnvP AtPhLscP AtPhSens AtPhEvap AtPhTauX AtPhTauY AtPh_SST
(PID.TID 0000.0001)  Fields:    AtPhInSR AtPhOLR  AtPhNSSR AtPhDSLR AtPhUSLR
(PID.TID 0000.0001) Creating Output Stream: dynDiag
(PID.TID 0000.0001) Output Frequency:     432000.000000 ; Phase:           0.000000
(PID.TID 0000.0001)  Averaging Freq.:     432000.000000 , Phase:           0.000000 , Cycle:   1
(PID.TID 0000.0001)  missing value: -9.990000000000E+02
(PID.TID 0000.0001)  Levels:    will be set later
(PID.TID 0000.0001)  Fields:    UVEL     VVEL     WVEL     THETA    SALT     UVELSQ   VVELSQ   WVELSQ   THETASQ  SALTSQ
(PID.TID 0000.0001)  Fields:    UVELMASS VVELMASS UV_VEL_C RELHUM   AtPhdTdt AtPhdQdt AtPhdUdt AtPhdVdt AtPhdtTg AtPhdtQg
(PID.TID 0000.0001)  Fields:    AtPhDifT AtPhDifM
(PID.TID 0000.0001) -----------------------------------------------------
(PID.TID 0000.0001)  DIAGNOSTICS_READPARMS: statistics diags. summary:
(PID.TID 0000.0001) Creating Stats. Output Stream: dynStDiag
(PID.TID 0000.0001) Output Frequency:      43200.000000 ; Phase:           0.000000
(PID.TID 0000.0001)  Regions:   0
(PID.TID 0000.0001)  Fields:    ETAN     THETA    SALT     RELHUM   UE_VEL_C VN_VEL_C WVEL     AtPhdTdt AtPhdQdt AtPhdUdt
(PID.TID 0000.0001)  Fields:    AtPhdVdt
(PID.TID 0000.0001) Creating Stats. Output Stream: diffStDiag
(PID.TID 0000.0001) Output Frequency:      43200.000000 ; Phase:           0.000000
(PID.TID 0000.0001)  Regions:   0
(PID.TID 0000.0001)  Fields:    AtPhDifT AtPhDifM AtPhDisH AtPhdtTg AtPhdtQg SHAP_dKE MoistCor
(PID.TID 0000.0001) Creating Stats. Output Stream: flxStDiag
(PID.TID 0000.0001) Output Frequency:      43200.000000 ; Phase:           0.000000
(PID.TID 0000.0001)  Regions:   0
(PID.TID 0000.0001)  Fields:    AtPhSens AtPhEvap AtPhTauX AtPhTauY AtPhCnvP AtPhLscP AtPh_SST AtPhInSR AtPhOLR  AtPhNSSR
(PID.TID 0000.0001)  Fields:    AtPhDSLR AtPhUSLR
(PID.TID 0000.0001) -----------------------------------------------------
(PID.TID 0000.0001) 
(PID.TID 0000.0001) SET_PARMS: done
(PID.TID 0000.0001) Enter INI_VERTICAL_GRID: setInterFDr=    T ; setCenterDr=    F
(PID.TID 0000.0001) tile:   1 ; Read from file dxC1_dXYa.face001.bin
(PID.TID 0000.0001)   => xC yC dxF dyF rA xG yG dxV dyU rAz dxC dyC rAw rAs dxG dyG AngleCS AngleSN
(PID.TID 0000.0001) tile:   2 ; Read from file dxC1_dXYa.face002.bin
(PID.TID 0000.0001)   => xC yC dxF dyF rA xG yG dxV dyU rAz dxC dyC rAw rAs dxG dyG AngleCS AngleSN
(PID.TID 0000.0001) tile:   3 ; Read from file dxC1_dXYa.face003.bin
(PID.TID 0000.0001)   => xC yC dxF dyF rA xG yG dxV dyU rAz dxC dyC rAw rAs dxG dyG AngleCS AngleSN
(PID.TID 0000.0001) tile:   4 ; Read from file dxC1_dXYa.face004.bin
(PID.TID 0000.0001)   => xC yC dxF dyF rA xG yG dxV dyU rAz dxC dyC rAw rAs dxG dyG AngleCS AngleSN
(PID.TID 0000.0001) tile:   5 ; Read from file dxC1_dXYa.face005.bin
(PID.TID 0000.0001)   => xC yC dxF dyF rA xG yG dxV dyU rAz dxC dyC rAw rAs dxG dyG AngleCS AngleSN
(PID.TID 0000.0001) tile:   6 ; Read from file dxC1_dXYa.face006.bin
(PID.TID 0000.0001)   => xC yC dxF dyF rA xG yG dxV dyU rAz dxC dyC rAw rAs dxG dyG AngleCS AngleSN
(PID.TID 0000.0001) %MON XC_max                       =   1.7854351589505E+02
(PID.TID 0000.0001) %MON XC_min                       =  -1.7854351589505E+02
(PID.TID 0000.0001) %MON XC_mean                      =  -4.6999441375798E-15
(PID.TID 0000.0001) %MON XC_sd                        =   1.0355545336287E+02
(PID.TID 0000.0001) %MON XG_max                       =   1.8000000000000E+02
(PID.TID 0000.0001) %MON XG_min                       =  -1.7708797161002E+02
(PID.TID 0000.0001) %MON XG_mean                      =   1.8603515625000E+00
(PID.TID 0000.0001) %MON XG_sd                        =   1.0357130300504E+02
(PID.TID 0000.0001) %MON DXC_max                      =   3.2375185836900E+05
(PID.TID 0000.0001) %MON DXC_min                      =   1.1353730006923E+05
(PID.TID 0000.0001) %MON DXC_mean                     =   2.8606102525036E+05
(PID.TID 0000.0001) %MON DXC_sd                       =   3.4020997630307E+04
(PID.TID 0000.0001) %MON DXF_max                      =   3.2369947500827E+05
(PID.TID 0000.0001) %MON DXF_min                      =   1.2020820513318E+05
(PID.TID 0000.0001) %MON DXF_mean                     =   2.8605437324820E+05
(PID.TID 0000.0001) %MON DXF_sd                       =   3.4050524252539E+04
(PID.TID 0000.0001) %MON DXG_max                      =   3.2375195872773E+05
(PID.TID 0000.0001) %MON DXG_min                      =   1.0098378008791E+05
(PID.TID 0000.0001) %MON DXG_mean                     =   2.8603818508931E+05
(PID.TID 0000.0001) %MON DXG_sd                       =   3.4140406908005E+04
(PID.TID 0000.0001) %MON DXV_max                      =   3.2380418162750E+05
(PID.TID 0000.0001) %MON DXV_min                      =   8.0152299824136E+04
(PID.TID 0000.0001) %MON DXV_mean                     =   2.8603970633619E+05
(PID.TID 0000.0001) %MON DXV_sd                       =   3.4145142117723E+04
(PID.TID 0000.0001) %MON YC_max                       =   8.7940663871962E+01
(PID.TID 0000.0001) %MON YC_min                       =  -8.7940663871962E+01
(PID.TID 0000.0001) %MON YC_mean                      =   0.0000000000000E+00
(PID.TID 0000.0001) %MON YC_sd                        =   3.8676242969072E+01
(PID.TID 0000.0001) %MON YG_max                       =   9.0000000000000E+01
(PID.TID 0000.0001) %MON YG_min                       =  -9.0000000000000E+01
(PID.TID 0000.0001) %MON YG_mean                      =  -1.1842378929335E-15
(PID.TID 0000.0001) %MON YG_sd                        =   3.8676895860710E+01
(PID.TID 0000.0001) %MON DYC_max                      =   3.2375185836900E+05
(PID.TID 0000.0001) %MON DYC_min                      =   1.1353730006923E+05
(PID.TID 0000.0001) %MON DYC_mean                     =   2.8606102525036E+05
(PID.TID 0000.0001) %MON DYC_sd                       =   3.4020997630307E+04
(PID.TID 0000.0001) %MON DYF_max                      =   3.2369947500827E+05
(PID.TID 0000.0001) %MON DYF_min                      =   1.2020820513318E+05
(PID.TID 0000.0001) %MON DYF_mean                     =   2.8605437324820E+05
(PID.TID 0000.0001) %MON DYF_sd                       =   3.4050524252539E+04
(PID.TID 0000.0001) %MON DYG_max                      =   3.2375195872773E+05
(PID.TID 0000.0001) %MON DYG_min                      =   1.0098378008791E+05
(PID.TID 0000.0001) %MON DYG_mean                     =   2.8603818508931E+05
(PID.TID 0000.0001) %MON DYG_sd                       =   3.4140406908005E+04
(PID.TID 0000.0001) %MON DYU_max                      =   3.2380418162750E+05
(PID.TID 0000.0001) %MON DYU_min                      =   8.0152299824136E+04
(PID.TID 0000.0001) %MON DYU_mean                     =   2.8603970633619E+05
(PID.TID 0000.0001) %MON DYU_sd                       =   3.4145142117723E+04
(PID.TID 0000.0001) %MON RA_max                       =   1.0474757731659E+11
(PID.TID 0000.0001) %MON RA_min                       =   1.5497867056722E+10
(PID.TID 0000.0001) %MON RA_mean                      =   8.2985711332657E+10
(PID.TID 0000.0001) %MON RA_sd                        =   1.7448591913787E+10
(PID.TID 0000.0001) %MON RAW_max                      =   1.0481529828871E+11
(PID.TID 0000.0001) %MON RAW_min                      =   1.1465425741966E+10
(PID.TID 0000.0001) %MON RAW_mean                     =   8.2985711332657E+10
(PID.TID 0000.0001) %MON RAW_sd                       =   1.7503889570793E+10
(PID.TID 0000.0001) %MON RAS_max                      =   1.0481529828871E+11
(PID.TID 0000.0001) %MON RAS_min                      =   1.1465425741966E+10
(PID.TID 0000.0001) %MON RAS_mean                     =   8.2985711332657E+10
(PID.TID 0000.0001) %MON RAS_sd                       =   1.7503889570793E+10
(PID.TID 0000.0001) %MON RAZ_max                      =   1.0484349334619E+11
(PID.TID 0000.0001) %MON RAZ_min                      =   8.8317900612505E+09
(PID.TID 0000.0001) %MON RAZ_mean                     =   8.2992246709235E+10
(PID.TID 0000.0001) %MON RAZ_sd                       =   1.7482297311044E+10
(PID.TID 0000.0001) %MON AngleCS_max                  =   9.9999994756719E-01
(PID.TID 0000.0001) %MON AngleCS_min                  =  -9.9968286884824E-01
(PID.TID 0000.0001) %MON AngleCS_mean                 =   3.3078922539000E-01
(PID.TID 0000.0001) %MON AngleCS_sd                   =   6.2496278958502E-01
(PID.TID 0000.0001) %MON AngleSN_max                  =   9.9968286884824E-01
(PID.TID 0000.0001) %MON AngleSN_min                  =  -9.9999994756719E-01
(PID.TID 0000.0001) %MON AngleSN_mean                 =  -3.3078922539000E-01
(PID.TID 0000.0001) %MON AngleSN_sd                   =   6.2496278958502E-01
(PID.TID 0000.0001) 
(PID.TID 0000.0001) SET_REF_STATE: PhiRef/g [m] at level Center (integer)
(PID.TID 0000.0001)                      and at level Interface (half-int.) :
(PID.TID 0000.0001)  K=  0.5  ;  r=       100000.0  ;  phiRef/g=        0.000
(PID.TID 0000.0001)  K=  1.0  ;  r=        99250.0  ;  phiRef/g=       65.000
(PID.TID 0000.0001)  K=  1.5  ;  r=        98500.0  ;  phiRef/g=      144.206
(PID.TID 0000.0001)  K=  2.0  ;  r=        97439.0  ;  phiRef/g=      223.440
(PID.TID 0000.0001)  K=  2.5  ;  r=        96378.0  ;  phiRef/g=      337.302
(PID.TID 0000.0001)  K=  3.0  ;  r=        94878.0  ;  phiRef/g=      451.241
(PID.TID 0000.0001)  K=  3.5  ;  r=        93378.0  ;  phiRef/g=      616.151
(PID.TID 0000.0001)  K=  4.0  ;  r=        91257.0  ;  phiRef/g=      781.172
(PID.TID 0000.0001)  K=  4.5  ;  r=        89136.0  ;  phiRef/g=     1022.734
(PID.TID 0000.0001)  K=  5.0  ;  r=        86136.0  ;  phiRef/g=     1264.623
(PID.TID 0000.0001)  K=  5.5  ;  r=        83136.0  ;  phiRef/g=     1607.359
(PID.TID 0000.0001)  K=  6.0  ;  r=        79236.0  ;  phiRef/g=     1950.789
(PID.TID 0000.0001)  K=  6.5  ;  r=        75336.0  ;  phiRef/g=     2401.805
(PID.TID 0000.0001)  K=  7.0  ;  r=        70786.0  ;  phiRef/g=     2853.886
(PID.TID 0000.0001)  K=  7.5  ;  r=        66236.0  ;  phiRef/g=     3395.385
(PID.TID 0000.0001)  K=  8.0  ;  r=        61536.0  ;  phiRef/g=     3938.525
(PID.TID 0000.0001)  K=  8.5  ;  r=        56836.0  ;  phiRef/g=     4549.812
(PID.TID 0000.0001)  K=  9.0  ;  r=        52196.0  ;  phiRef/g=     5163.354
(PID.TID 0000.0001)  K=  9.5  ;  r=        47556.0  ;  phiRef/g=     5821.228
(PID.TID 0000.0001)  K= 10.0  ;  r=        43356.0  ;  phiRef/g=     6481.959
(PID.TID 0000.0001)  K= 10.5  ;  r=        39156.0  ;  phiRef/g=     7140.379
(PID.TID 0000.0001)  K= 11.0  ;  r=        35666.0  ;  phiRef/g=     7802.741
(PID.TID 0000.0001)  K= 11.5  ;  r=        32176.0  ;  phiRef/g=     8435.972
(PID.TID 0000.0001)  K= 12.0  ;  r=        29276.0  ;  phiRef/g=     9076.532
(PID.TID 0000.0001)  K= 12.5  ;  r=        26376.0  ;  phiRef/g=     9690.011
(PID.TID 0000.0001)  K= 13.0  ;  r=        23966.0  ;  phiRef/g=    10315.322
(PID.TID 0000.0001)  K= 13.5  ;  r=        21556.0  ;  phiRef/g=    10915.408
(PID.TID 0000.0001)  K= 14.0  ;  r=        19554.0  ;  phiRef/g=    11534.739
(PID.TID 0000.0001)  K= 14.5  ;  r=        17552.0  ;  phiRef/g=    12130.692
(PID.TID 0000.0001)  K= 15.0  ;  r=        15888.0  ;  phiRef/g=    12757.201
(PID.TID 0000.0001)  K= 15.5  ;  r=        14224.0  ;  phiRef/g=    13362.259
(PID.TID 0000.0001)  K= 16.0  ;  r=        12841.0  ;  phiRef/g=    14005.235
(PID.TID 0000.0001)  K= 16.5  ;  r=        11458.0  ;  phiRef/g=    14628.723
(PID.TID 0000.0001)  K= 17.0  ;  r=        10309.0  ;  phiRef/g=    15292.620
(PID.TID 0000.0001)  K= 17.5  ;  r=         9160.0  ;  phiRef/g=    15939.897
(PID.TID 0000.0001)  K= 18.0  ;  r=         8205.0  ;  phiRef/g=    16630.800
(PID.TID 0000.0001)  K= 18.5  ;  r=         7250.0  ;  phiRef/g=    17309.051
(PID.TID 0000.0001)  K= 19.0  ;  r=         6457.0  ;  phiRef/g=    18035.275
(PID.TID 0000.0001)  K= 19.5  ;  r=         5664.0  ;  phiRef/g=    18754.792
(PID.TID 0000.0001)  K= 20.0  ;  r=         5005.0  ;  phiRef/g=    19528.745
(PID.TID 0000.0001)  K= 20.5  ;  r=         4346.0  ;  phiRef/g=    20306.032
(PID.TID 0000.0001)  K= 21.0  ;  r=         3798.0  ;  phiRef/g=    21147.074
(PID.TID 0000.0001)  K= 21.5  ;  r=         3250.0  ;  phiRef/g=    22007.037
(PID.TID 0000.0001)  K= 22.0  ;  r=         2795.0  ;  phiRef/g=    22945.700
(PID.TID 0000.0001)  K= 22.5  ;  r=         2340.0  ;  phiRef/g=    23931.492
(PID.TID 0000.0001)  K= 23.0  ;  r=         1962.0  ;  phiRef/g=    25022.107
(PID.TID 0000.0001)  K= 23.5  ;  r=         1584.0  ;  phiRef/g=    26220.010
(PID.TID 0000.0001)  K= 24.0  ;  r=         1270.0  ;  phiRef/g=    27576.491
(PID.TID 0000.0001)  K= 24.5  ;  r=          956.0  ;  phiRef/g=    29198.536
(PID.TID 0000.0001)  K= 25.0  ;  r=          695.0  ;  phiRef/g=    31125.517
(PID.TID 0000.0001)  K= 25.5  ;  r=          434.0  ;  phiRef/g=    34025.939
(PID.TID 0000.0001)  K= 26.0  ;  r=          217.0  ;  phiRef/g=    38070.823
(PID.TID 0000.0001)  K= 26.5  ;  r=            0.0  ;  phiRef/g=    58574.329
(PID.TID 0000.0001) // =======================================================
(PID.TID 0000.0001) // Field Model R_low (ini_masks_etc)
(PID.TID 0000.0001) // CMIN =          1.000000000000000E+32
(PID.TID 0000.0001) // CMAX =         -1.000000000000000E+32
(PID.TID 0000.0001) // CINT =          0.000000000000000E+00
(PID.TID 0000.0001) // SYMBOLS (CMIN->CMAX): -abcdefghijklmnopqrstuvwxyz+
(PID.TID 0000.0001) //                  0.0: .
(PID.TID 0000.0001) // RANGE I (Lo:Hi:Step):(    -3:   196:     1)
(PID.TID 0000.0001) // RANGE J (Lo:Hi:Step):(    36:    -3:    -1)
(PID.TID 0000.0001) // RANGE K (Lo:Hi:Step):(   1:   1:   1)
(PID.TID 0000.0001) // =======================================================
(PID.TID 0000.0001) // =======================================================
(PID.TID 0000.0001) // END OF FIELD                                          =
(PID.TID 0000.0001) // =======================================================
(PID.TID 0000.0001) 
(PID.TID 0000.0001) // =======================================================
(PID.TID 0000.0001) // Field Model Ro_surf (ini_masks_etc)
(PID.TID 0000.0001) // CMIN =          1.000000000000000E+05
(PID.TID 0000.0001) // CMAX =          1.000000000000000E+05
(PID.TID 0000.0001) // CINT =          0.000000000000000E+00
(PID.TID 0000.0001) // SYMBOLS (CMIN->CMAX): -abcdefghijklmnopqrstuvwxyz+
(PID.TID 0000.0001) //                  0.0: .
(PID.TID 0000.0001) // RANGE I (Lo:Hi:Step):(    -3:   196:     1)
(PID.TID 0000.0001) // RANGE J (Lo:Hi:Step):(    36:    -3:    -1)
(PID.TID 0000.0001) // RANGE K (Lo:Hi:Step):(   1:   1:   1)
(PID.TID 0000.0001) // =======================================================
(PID.TID 0000.0001) // =======================================================
(PID.TID 0000.0001) // END OF FIELD                                          =
(PID.TID 0000.0001) // =======================================================
(PID.TID 0000.0001) 
(PID.TID 0000.0001) // =======================================================
(PID.TID 0000.0001) // Field hFacC at iteration          0
(PID.TID 0000.0001) // CMIN =          1.000000000000000E+00
(PID.TID 0000.0001) // CMAX =          1.000000000000000E+00
(PID.TID 0000.0001) // CINT =          0.000000000000000E+00
(PID.TID 0000.0001) // SYMBOLS (CMIN->CMAX): -abcdefghijklmnopqrstuvwxyz+
(PID.TID 0000.0001) //                  0.0: .
(PID.TID 0000.0001) // RANGE I (Lo:Hi:Step):(    -3:   196:     1)
(PID.TID 0000.0001) // RANGE J (Lo:Hi:Step):(    36:    -3:    -1)
(PID.TID 0000.0001) // RANGE K (Lo:Hi:Step):(   1:   1:   1)
(PID.TID 0000.0001) // =======================================================
(PID.TID 0000.0001) // =======================================================
(PID.TID 0000.0001) // END OF FIELD                                          =
(PID.TID 0000.0001) // =======================================================
(PID.TID 0000.0001) 
(PID.TID 0000.0001) // =======================================================
(PID.TID 0000.0001) // Field hFacW at iteration          0
(PID.TID 0000.0001) // CMIN =          1.000000000000000E+00
(PID.TID 0000.0001) // CMAX =          1.000000000000000E+00
(PID.TID 0000.0001) // CINT =          0.000000000000000E+00
(PID.TID 0000.0001) // SYMBOLS (CMIN->CMAX): -abcdefghijklmnopqrstuvwxyz+
(PID.TID 0000.0001) //                  0.0: .
(PID.TID 0000.0001) // RANGE I (Lo:Hi:Step):(    -3:   196:     1)
(PID.TID 0000.0001) // RANGE J (Lo:Hi:Step):(    36:    -3:    -1)
(PID.TID 0000.0001) // RANGE K (Lo:Hi:Step):(   1:   1:   1)
(PID.TID 0000.0001) // =======================================================
(PID.TID 0000.0001) // =======================================================
(PID.TID 0000.0001) // END OF FIELD                                          =
(PID.TID 0000.0001) // =======================================================
(PID.TID 0000.0001) 
(PID.TID 0000.0001) // =======================================================
(PID.TID 0000.0001) // Field hFacS at iteration          0
(PID.TID 0000.0001) // CMIN =          1.000000000000000E+00
(PID.TID 0000.0001) // CMAX =          1.000000000000000E+00
(PID.TID 0000.0001) // CINT =          0.000000000000000E+00
(PID.TID 0000.0001) // SYMBOLS (CMIN->CMAX): -abcdefghijklmnopqrstuvwxyz+
(PID.TID 0000.0001) //                  0.0: .
(PID.TID 0000.0001) // RANGE I (Lo:Hi:Step):(    -3:   196:     1)
(PID.TID 0000.0001) // RANGE J (Lo:Hi:Step):(    36:    -3:    -1)
(PID.TID 0000.0001) // RANGE K (Lo:Hi:Step):(   1:   1:   1)
(PID.TID 0000.0001) // =======================================================
(PID.TID 0000.0001) // =======================================================
(PID.TID 0000.0001) // END OF FIELD                                          =
(PID.TID 0000.0001) // =======================================================
(PID.TID 0000.0001) 
(PID.TID 0000.0001) GAD_INIT_FIXED: GAD_OlMinSize=  2  0  2
(PID.TID 0000.0001) 
(PID.TID 0000.0001) // ===================================
(PID.TID 0000.0001) // GAD parameters :
(PID.TID 0000.0001) // ===================================
(PID.TID 0000.0001) tempAdvScheme =   /* Temp. Horiz.Advection scheme selector */
(PID.TID 0000.0001)                       2
(PID.TID 0000.0001)     ;
(PID.TID 0000.0001) tempVertAdvScheme =   /* Temp. Vert. Advection scheme selector */
(PID.TID 0000.0001)                       2
(PID.TID 0000.0001)     ;
(PID.TID 0000.0001) tempMultiDimAdvec =   /* use Muti-Dim Advec method for Temp */
(PID.TID 0000.0001)                   F
(PID.TID 0000.0001)     ;
(PID.TID 0000.0001) tempSOM_Advection = /* use 2nd Order Moment Advection for Temp */
(PID.TID 0000.0001)                   F
(PID.TID 0000.0001)     ;
(PID.TID 0000.0001) AdamsBashforthGt = /* apply Adams-Bashforth extrapolation on Gt */
(PID.TID 0000.0001)                   T
(PID.TID 0000.0001)     ;
(PID.TID 0000.0001) AdamsBashforth_T = /* apply Adams-Bashforth extrapolation on Temp */
(PID.TID 0000.0001)                   F
(PID.TID 0000.0001)     ;
(PID.TID 0000.0001) saltAdvScheme =   /* Salt. Horiz.advection scheme selector */
(PID.TID 0000.0001)                      77
(PID.TID 0000.0001)     ;
(PID.TID 0000.0001) saltVertAdvScheme =   /* Salt. Vert. Advection scheme selector */
(PID.TID 0000.0001)                      77
(PID.TID 0000.0001)     ;
(PID.TID 0000.0001) saltMultiDimAdvec =   /* use Muti-Dim Advec method for Salt */
(PID.TID 0000.0001)                   T
(PID.TID 0000.0001)     ;
(PID.TID 0000.0001) saltSOM_Advection = /* use 2nd Order Moment Advection for Salt */
(PID.TID 0000.0001)                   F
(PID.TID 0000.0001)     ;
(PID.TID 0000.0001) AdamsBashforthGs = /* apply Adams-Bashforth extrapolation on Gs */
(PID.TID 0000.0001)                   F
(PID.TID 0000.0001)     ;
(PID.TID 0000.0001) AdamsBashforth_S = /* apply Adams-Bashforth extrapolation on Salt */
(PID.TID 0000.0001)                   F
(PID.TID 0000.0001)     ;
(PID.TID 0000.0001) // ===================================
(PID.TID 0000.0001) ATM_PHYS_INIT_FIXED: opening data.atm_gray
(PID.TID 0000.0001)  OPEN_COPY_DATA_FILE: opening file data.atm_gray
(PID.TID 0000.0001) // =======================================================
(PID.TID 0000.0001) // Parameter file "data.atm_gray"
(PID.TID 0000.0001) // =======================================================
(PID.TID 0000.0001) >
(PID.TID 0000.0001) > &atmosphere_nml
(PID.TID 0000.0001) >    turb = .TRUE.,
(PID.TID 0000.0001) >    ldry_convection = .false.,
(PID.TID 0000.0001) >    lwet_convection = .TRUE.,
(PID.TID 0000.0001) >    do_virtual = .false.,
(PID.TID 0000.0001) >    two_stream = .true.,
(PID.TID 0000.0001) >    mixed_layer_bc = .false.,
(PID.TID 0000.0001) >    roughness_heat = 0.05,
(PID.TID 0000.0001) >    roughness_moist = 0.05,
(PID.TID 0000.0001) >    roughness_mom = 0.05,
(PID.TID 0000.0001) > /
(PID.TID 0000.0001) >
(PID.TID 0000.0001) > &radiation_nml
(PID.TID 0000.0001) >  solar_constant= 1365.,
(PID.TID 0000.0001) >  del_sol=1.,
(PID.TID 0000.0001) ># ir_tau_eq=
(PID.TID 0000.0001) ># ir_tau_pole=
(PID.TID 0000.0001) >  atm_abs= 0.22,
(PID.TID 0000.0001) ># value that Ruth is using as default:
(PID.TID 0000.0001) ># atm_abs= 0.2486,
(PID.TID 0000.0001) ># sw_diff=
(PID.TID 0000.0001) ># linear_tau=
(PID.TID 0000.0001) ># del_sw=
(PID.TID 0000.0001) >  albedo_value=0.38,
(PID.TID 0000.0001) ># window=
(PID.TID 0000.0001) ># wv_exponent=
(PID.TID 0000.0001) ># solar_exponent=
(PID.TID 0000.0001) >  wv_exponent=0.,
(PID.TID 0000.0001) > /
(PID.TID 0000.0001) >
(PID.TID 0000.0001) > &lscale_cond_nml
(PID.TID 0000.0001) ># hc =
(PID.TID 0000.0001) ># do_evap=
(PID.TID 0000.0001) > /
(PID.TID 0000.0001) >
(PID.TID 0000.0001) > &dargan_bettsmiller_nml
(PID.TID 0000.0001) >#  tau_bm =,
(PID.TID 0000.0001) >#  rhbm =,
(PID.TID 0000.0001) >#  do_shallower=,
(PID.TID 0000.0001) >#  do_changeqref=,
(PID.TID 0000.0001) >#  do_envsat=,
(PID.TID 0000.0001) >#  do_taucape=,
(PID.TID 0000.0001) >#  capetaubm=,
(PID.TID 0000.0001) >#  tau_min =,
(PID.TID 0000.0001) >#  do_virtual=,
(PID.TID 0000.0001) >#  do_bm_shift=,
(PID.TID 0000.0001) > /
(PID.TID 0000.0001) >
(PID.TID 0000.0001) > &surface_flux_nml
(PID.TID 0000.0001) > /
(PID.TID 0000.0001) >
(PID.TID 0000.0001) > &vert_turb_driver_nml
(PID.TID 0000.0001) >#  do_shallow_conv, do_mellor_yamada,
(PID.TID 0000.0001) >#  gust_scheme, constant_gust, use_tau,
(PID.TID 0000.0001) >#  do_molecular_diffusion
(PID.TID 0000.0001) >  do_mellor_yamada=.FALSE.,
(PID.TID 0000.0001) > /
(PID.TID 0000.0001) >
(PID.TID 0000.0001) > &diffusivity_nml
(PID.TID 0000.0001) >#  fixed_depth, depth_0, frac_inner,
(PID.TID 0000.0001) >#  rich_crit_pbl, entr_ratio, parcel_buoy,
(PID.TID 0000.0001) >#  znom, free_atm_diff, free_atm_skyhi_diff,
(PID.TID 0000.0001) >#  pbl_mcm, rich_crit_diff, mix_len, rich_prandtl,
(PID.TID 0000.0001) >#  background_m, background_t, ampns, ampns_max,
(PID.TID 0000.0001) >#  do_virtual_non_mcm
(PID.TID 0000.0001) > /
(PID.TID 0000.0001) >
(PID.TID 0000.0001) > &monin_obukhov_nml
(PID.TID 0000.0001) > /
(PID.TID 0000.0001) >
(PID.TID 0000.0001) > &my25_turb_nml
(PID.TID 0000.0001) > /
(PID.TID 0000.0001) >
(PID.TID 0000.0001) > &shallow_conv_nml
(PID.TID 0000.0001) > /
(PID.TID 0000.0001) >
(PID.TID 0000.0001) > &mixed_layer_nml
(PID.TID 0000.0001) ># evaporation, qflux_amp, depth, qflux_width
(PID.TID 0000.0001) >  depth=10.,
(PID.TID 0000.0001) > /
(PID.TID 0000.0001) 
(PID.TID 0000.0001) ATM_PHYS_INIT_FIXED: finished reading data.atm_gray
(PID.TID 0000.0001) MIXED_LAYER_INIT: opening data.atm_gray
(PID.TID 0000.0001)  OPEN_COPY_DATA_FILE: opening file data.atm_gray
(PID.TID 0000.0001) // =======================================================
(PID.TID 0000.0001) // Parameter file "data.atm_gray"
(PID.TID 0000.0001) // =======================================================
(PID.TID 0000.0001) >
(PID.TID 0000.0001) > &atmosphere_nml
(PID.TID 0000.0001) >    turb = .TRUE.,
(PID.TID 0000.0001) >    ldry_convection = .false.,
(PID.TID 0000.0001) >    lwet_convection = .TRUE.,
(PID.TID 0000.0001) >    do_virtual = .false.,
(PID.TID 0000.0001) >    two_stream = .true.,
(PID.TID 0000.0001) >    mixed_layer_bc = .false.,
(PID.TID 0000.0001) >    roughness_heat = 0.05,
(PID.TID 0000.0001) >    roughness_moist = 0.05,
(PID.TID 0000.0001) >    roughness_mom = 0.05,
(PID.TID 0000.0001) > /
(PID.TID 0000.0001) >
(PID.TID 0000.0001) > &radiation_nml
(PID.TID 0000.0001) >  solar_constant= 1365.,
(PID.TID 0000.0001) >  del_sol=1.,
(PID.TID 0000.0001) ># ir_tau_eq=
(PID.TID 0000.0001) ># ir_tau_pole=
(PID.TID 0000.0001) >  atm_abs= 0.22,
(PID.TID 0000.0001) ># value that Ruth is using as default:
(PID.TID 0000.0001) ># atm_abs= 0.2486,
(PID.TID 0000.0001) ># sw_diff=
(PID.TID 0000.0001) ># linear_tau=
(PID.TID 0000.0001) ># del_sw=
(PID.TID 0000.0001) >  albedo_value=0.38,
(PID.TID 0000.0001) ># window=
(PID.TID 0000.0001) ># wv_exponent=
(PID.TID 0000.0001) ># solar_exponent=
(PID.TID 0000.0001) >  wv_exponent=0.,
(PID.TID 0000.0001) > /
(PID.TID 0000.0001) >
(PID.TID 0000.0001) > &lscale_cond_nml
(PID.TID 0000.0001) ># hc =
(PID.TID 0000.0001) ># do_evap=
(PID.TID 0000.0001) > /
(PID.TID 0000.0001) >
(PID.TID 0000.0001) > &dargan_bettsmiller_nml
(PID.TID 0000.0001) >#  tau_bm =,
(PID.TID 0000.0001) >#  rhbm =,
(PID.TID 0000.0001) >#  do_shallower=,
(PID.TID 0000.0001) >#  do_changeqref=,
(PID.TID 0000.0001) >#  do_envsat=,
(PID.TID 0000.0001) >#  do_taucape=,
(PID.TID 0000.0001) >#  capetaubm=,
(PID.TID 0000.0001) >#  tau_min =,
(PID.TID 0000.0001) >#  do_virtual=,
(PID.TID 0000.0001) >#  do_bm_shift=,
(PID.TID 0000.0001) > /
(PID.TID 0000.0001) >
(PID.TID 0000.0001) > &surface_flux_nml
(PID.TID 0000.0001) > /
(PID.TID 0000.0001) >
(PID.TID 0000.0001) > &vert_turb_driver_nml
(PID.TID 0000.0001) >#  do_shallow_conv, do_mellor_yamada,
(PID.TID 0000.0001) >#  gust_scheme, constant_gust, use_tau,
(PID.TID 0000.0001) >#  do_molecular_diffusion
(PID.TID 0000.0001) >  do_mellor_yamada=.FALSE.,
(PID.TID 0000.0001) > /
(PID.TID 0000.0001) >
(PID.TID 0000.0001) > &diffusivity_nml
(PID.TID 0000.0001) >#  fixed_depth, depth_0, frac_inner,
(PID.TID 0000.0001) >#  rich_crit_pbl, entr_ratio, parcel_buoy,
(PID.TID 0000.0001) >#  znom, free_atm_diff, free_atm_skyhi_diff,
(PID.TID 0000.0001) >#  pbl_mcm, rich_crit_diff, mix_len, rich_prandtl,
(PID.TID 0000.0001) >#  background_m, background_t, ampns, ampns_max,
(PID.TID 0000.0001) >#  do_virtual_non_mcm
(PID.TID 0000.0001) > /
(PID.TID 0000.0001) >
(PID.TID 0000.0001) > &monin_obukhov_nml
(PID.TID 0000.0001) > /
(PID.TID 0000.0001) >
(PID.TID 0000.0001) > &my25_turb_nml
(PID.TID 0000.0001) > /
(PID.TID 0000.0001) >
(PID.TID 0000.0001) > &shallow_conv_nml
(PID.TID 0000.0001) > /
(PID.TID 0000.0001) >
(PID.TID 0000.0001) > &mixed_layer_nml
(PID.TID 0000.0001) ># evaporation, qflux_amp, depth, qflux_width
(PID.TID 0000.0001) >  depth=10.,
(PID.TID 0000.0001) > /
(PID.TID 0000.0001) 
(PID.TID 0000.0001) MIXED_LAYER_INIT: finished reading data.atm_gray
(PID.TID 0000.0001) LSCALE_COND_INIT: opening data.atm_gray
(PID.TID 0000.0001)  OPEN_COPY_DATA_FILE: opening file data.atm_gray
(PID.TID 0000.0001) // =======================================================
(PID.TID 0000.0001) // Parameter file "data.atm_gray"
(PID.TID 0000.0001) // =======================================================
(PID.TID 0000.0001) >
(PID.TID 0000.0001) > &atmosphere_nml
(PID.TID 0000.0001) >    turb = .TRUE.,
(PID.TID 0000.0001) >    ldry_convection = .false.,
(PID.TID 0000.0001) >    lwet_convection = .TRUE.,
(PID.TID 0000.0001) >    do_virtual = .false.,
(PID.TID 0000.0001) >    two_stream = .true.,
(PID.TID 0000.0001) >    mixed_layer_bc = .false.,
(PID.TID 0000.0001) >    roughness_heat = 0.05,
(PID.TID 0000.0001) >    roughness_moist = 0.05,
(PID.TID 0000.0001) >    roughness_mom = 0.05,
(PID.TID 0000.0001) > /
(PID.TID 0000.0001) >
(PID.TID 0000.0001) > &radiation_nml
(PID.TID 0000.0001) >  solar_constant= 1365.,
(PID.TID 0000.0001) >  del_sol=1.,
(PID.TID 0000.0001) ># ir_tau_eq=
(PID.TID 0000.0001) ># ir_tau_pole=
(PID.TID 0000.0001) >  atm_abs= 0.22,
(PID.TID 0000.0001) ># value that Ruth is using as default:
(PID.TID 0000.0001) ># atm_abs= 0.2486,
(PID.TID 0000.0001) ># sw_diff=
(PID.TID 0000.0001) ># linear_tau=
(PID.TID 0000.0001) ># del_sw=
(PID.TID 0000.0001) >  albedo_value=0.38,
(PID.TID 0000.0001) ># window=
(PID.TID 0000.0001) ># wv_exponent=
(PID.TID 0000.0001) ># solar_exponent=
(PID.TID 0000.0001) >  wv_exponent=0.,
(PID.TID 0000.0001) > /
(PID.TID 0000.0001) >
(PID.TID 0000.0001) > &lscale_cond_nml
(PID.TID 0000.0001) ># hc =
(PID.TID 0000.0001) ># do_evap=
(PID.TID 0000.0001) > /
(PID.TID 0000.0001) >
(PID.TID 0000.0001) > &dargan_bettsmiller_nml
(PID.TID 0000.0001) >#  tau_bm =,
(PID.TID 0000.0001) >#  rhbm =,
(PID.TID 0000.0001) >#  do_shallower=,
(PID.TID 0000.0001) >#  do_changeqref=,
(PID.TID 0000.0001) >#  do_envsat=,
(PID.TID 0000.0001) >#  do_taucape=,
(PID.TID 0000.0001) >#  capetaubm=,
(PID.TID 0000.0001) >#  tau_min =,
(PID.TID 0000.0001) >#  do_virtual=,
(PID.TID 0000.0001) >#  do_bm_shift=,
(PID.TID 0000.0001) > /
(PID.TID 0000.0001) >
(PID.TID 0000.0001) > &surface_flux_nml
(PID.TID 0000.0001) > /
(PID.TID 0000.0001) >
(PID.TID 0000.0001) > &vert_turb_driver_nml
(PID.TID 0000.0001) >#  do_shallow_conv, do_mellor_yamada,
(PID.TID 0000.0001) >#  gust_scheme, constant_gust, use_tau,
(PID.TID 0000.0001) >#  do_molecular_diffusion
(PID.TID 0000.0001) >  do_mellor_yamada=.FALSE.,
(PID.TID 0000.0001) > /
(PID.TID 0000.0001) >
(PID.TID 0000.0001) > &diffusivity_nml
(PID.TID 0000.0001) >#  fixed_depth, depth_0, frac_inner,
(PID.TID 0000.0001) >#  rich_crit_pbl, entr_ratio, parcel_buoy,
(PID.TID 0000.0001) >#  znom, free_atm_diff, free_atm_skyhi_diff,
(PID.TID 0000.0001) >#  pbl_mcm, rich_crit_diff, mix_len, rich_prandtl,
(PID.TID 0000.0001) >#  background_m, background_t, ampns, ampns_max,
(PID.TID 0000.0001) >#  do_virtual_non_mcm
(PID.TID 0000.0001) > /
(PID.TID 0000.0001) >
(PID.TID 0000.0001) > &monin_obukhov_nml
(PID.TID 0000.0001) > /
(PID.TID 0000.0001) >
(PID.TID 0000.0001) > &my25_turb_nml
(PID.TID 0000.0001) > /
(PID.TID 0000.0001) >
(PID.TID 0000.0001) > &shallow_conv_nml
(PID.TID 0000.0001) > /
(PID.TID 0000.0001) >
(PID.TID 0000.0001) > &mixed_layer_nml
(PID.TID 0000.0001) ># evaporation, qflux_amp, depth, qflux_width
(PID.TID 0000.0001) >  depth=10.,
(PID.TID 0000.0001) > /
(PID.TID 0000.0001) 
(PID.TID 0000.0001) LSCALE_COND_INIT: finished reading data.atm_gray
(PID.TID 0000.0001) DARGAN_BETTSMILLER_init: opening data.atm_gray
(PID.TID 0000.0001)  OPEN_COPY_DATA_FILE: opening file data.atm_gray
(PID.TID 0000.0001) // =======================================================
(PID.TID 0000.0001) // Parameter file "data.atm_gray"
(PID.TID 0000.0001) // =======================================================
(PID.TID 0000.0001) >
(PID.TID 0000.0001) > &atmosphere_nml
(PID.TID 0000.0001) >    turb = .TRUE.,
(PID.TID 0000.0001) >    ldry_convection = .false.,
(PID.TID 0000.0001) >    lwet_convection = .TRUE.,
(PID.TID 0000.0001) >    do_virtual = .false.,
(PID.TID 0000.0001) >    two_stream = .true.,
(PID.TID 0000.0001) >    mixed_layer_bc = .false.,
(PID.TID 0000.0001) >    roughness_heat = 0.05,
(PID.TID 0000.0001) >    roughness_moist = 0.05,
(PID.TID 0000.0001) >    roughness_mom = 0.05,
(PID.TID 0000.0001) > /
(PID.TID 0000.0001) >
(PID.TID 0000.0001) > &radiation_nml
(PID.TID 0000.0001) >  solar_constant= 1365.,
(PID.TID 0000.0001) >  del_sol=1.,
(PID.TID 0000.0001) ># ir_tau_eq=
(PID.TID 0000.0001) ># ir_tau_pole=
(PID.TID 0000.0001) >  atm_abs= 0.22,
(PID.TID 0000.0001) ># value that Ruth is using as default:
(PID.TID 0000.0001) ># atm_abs= 0.2486,
(PID.TID 0000.0001) ># sw_diff=
(PID.TID 0000.0001) ># linear_tau=
(PID.TID 0000.0001) ># del_sw=
(PID.TID 0000.0001) >  albedo_value=0.38,
(PID.TID 0000.0001) ># window=
(PID.TID 0000.0001) ># wv_exponent=
(PID.TID 0000.0001) ># solar_exponent=
(PID.TID 0000.0001) >  wv_exponent=0.,
(PID.TID 0000.0001) > /
(PID.TID 0000.0001) >
(PID.TID 0000.0001) > &lscale_cond_nml
(PID.TID 0000.0001) ># hc =
(PID.TID 0000.0001) ># do_evap=
(PID.TID 0000.0001) > /
(PID.TID 0000.0001) >
(PID.TID 0000.0001) > &dargan_bettsmiller_nml
(PID.TID 0000.0001) >#  tau_bm =,
(PID.TID 0000.0001) >#  rhbm =,
(PID.TID 0000.0001) >#  do_shallower=,
(PID.TID 0000.0001) >#  do_changeqref=,
(PID.TID 0000.0001) >#  do_envsat=,
(PID.TID 0000.0001) >#  do_taucape=,
(PID.TID 0000.0001) >#  capetaubm=,
(PID.TID 0000.0001) >#  tau_min =,
(PID.TID 0000.0001) >#  do_virtual=,
(PID.TID 0000.0001) >#  do_bm_shift=,
(PID.TID 0000.0001) > /
(PID.TID 0000.0001) >
(PID.TID 0000.0001) > &surface_flux_nml
(PID.TID 0000.0001) > /
(PID.TID 0000.0001) >
(PID.TID 0000.0001) > &vert_turb_driver_nml
(PID.TID 0000.0001) >#  do_shallow_conv, do_mellor_yamada,
(PID.TID 0000.0001) >#  gust_scheme, constant_gust, use_tau,
(PID.TID 0000.0001) >#  do_molecular_diffusion
(PID.TID 0000.0001) >  do_mellor_yamada=.FALSE.,
(PID.TID 0000.0001) > /
(PID.TID 0000.0001) >
(PID.TID 0000.0001) > &diffusivity_nml
(PID.TID 0000.0001) >#  fixed_depth, depth_0, frac_inner,
(PID.TID 0000.0001) >#  rich_crit_pbl, entr_ratio, parcel_buoy,
(PID.TID 0000.0001) >#  znom, free_atm_diff, free_atm_skyhi_diff,
(PID.TID 0000.0001) >#  pbl_mcm, rich_crit_diff, mix_len, rich_prandtl,
(PID.TID 0000.0001) >#  background_m, background_t, ampns, ampns_max,
(PID.TID 0000.0001) >#  do_virtual_non_mcm
(PID.TID 0000.0001) > /
(PID.TID 0000.0001) >
(PID.TID 0000.0001) > &monin_obukhov_nml
(PID.TID 0000.0001) > /
(PID.TID 0000.0001) >
(PID.TID 0000.0001) > &my25_turb_nml
(PID.TID 0000.0001) > /
(PID.TID 0000.0001) >
(PID.TID 0000.0001) > &shallow_conv_nml
(PID.TID 0000.0001) > /
(PID.TID 0000.0001) >
(PID.TID 0000.0001) > &mixed_layer_nml
(PID.TID 0000.0001) ># evaporation, qflux_amp, depth, qflux_width
(PID.TID 0000.0001) >  depth=10.,
(PID.TID 0000.0001) > /
(PID.TID 0000.0001) 
(PID.TID 0000.0001) DARGAB_BETTSMILLER_INIT: finished reading data.atm_gray
(PID.TID 0000.0001) RADIATION_INIT: opening data.atm_gray
(PID.TID 0000.0001)  OPEN_COPY_DATA_FILE: opening file data.atm_gray
(PID.TID 0000.0001) // =======================================================
(PID.TID 0000.0001) // Parameter file "data.atm_gray"
(PID.TID 0000.0001) // =======================================================
(PID.TID 0000.0001) >
(PID.TID 0000.0001) > &atmosphere_nml
(PID.TID 0000.0001) >    turb = .TRUE.,
(PID.TID 0000.0001) >    ldry_convection = .false.,
(PID.TID 0000.0001) >    lwet_convection = .TRUE.,
(PID.TID 0000.0001) >    do_virtual = .false.,
(PID.TID 0000.0001) >    two_stream = .true.,
(PID.TID 0000.0001) >    mixed_layer_bc = .false.,
(PID.TID 0000.0001) >    roughness_heat = 0.05,
(PID.TID 0000.0001) >    roughness_moist = 0.05,
(PID.TID 0000.0001) >    roughness_mom = 0.05,
(PID.TID 0000.0001) > /
(PID.TID 0000.0001) >
(PID.TID 0000.0001) > &radiation_nml
(PID.TID 0000.0001) >  solar_constant= 1365.,
(PID.TID 0000.0001) >  del_sol=1.,
(PID.TID 0000.0001) ># ir_tau_eq=
(PID.TID 0000.0001) ># ir_tau_pole=
(PID.TID 0000.0001) >  atm_abs= 0.22,
(PID.TID 0000.0001) ># value that Ruth is using as default:
(PID.TID 0000.0001) ># atm_abs= 0.2486,
(PID.TID 0000.0001) ># sw_diff=
(PID.TID 0000.0001) ># linear_tau=
(PID.TID 0000.0001) ># del_sw=
(PID.TID 0000.0001) >  albedo_value=0.38,
(PID.TID 0000.0001) ># window=
(PID.TID 0000.0001) ># wv_exponent=
(PID.TID 0000.0001) ># solar_exponent=
(PID.TID 0000.0001) >  wv_exponent=0.,
(PID.TID 0000.0001) > /
(PID.TID 0000.0001) >
(PID.TID 0000.0001) > &lscale_cond_nml
(PID.TID 0000.0001) ># hc =
(PID.TID 0000.0001) ># do_evap=
(PID.TID 0000.0001) > /
(PID.TID 0000.0001) >
(PID.TID 0000.0001) > &dargan_bettsmiller_nml
(PID.TID 0000.0001) >#  tau_bm =,
(PID.TID 0000.0001) >#  rhbm =,
(PID.TID 0000.0001) >#  do_shallower=,
(PID.TID 0000.0001) >#  do_changeqref=,
(PID.TID 0000.0001) >#  do_envsat=,
(PID.TID 0000.0001) >#  do_taucape=,
(PID.TID 0000.0001) >#  capetaubm=,
(PID.TID 0000.0001) >#  tau_min =,
(PID.TID 0000.0001) >#  do_virtual=,
(PID.TID 0000.0001) >#  do_bm_shift=,
(PID.TID 0000.0001) > /
(PID.TID 0000.0001) >
(PID.TID 0000.0001) > &surface_flux_nml
(PID.TID 0000.0001) > /
(PID.TID 0000.0001) >
(PID.TID 0000.0001) > &vert_turb_driver_nml
(PID.TID 0000.0001) >#  do_shallow_conv, do_mellor_yamada,
(PID.TID 0000.0001) >#  gust_scheme, constant_gust, use_tau,
(PID.TID 0000.0001) >#  do_molecular_diffusion
(PID.TID 0000.0001) >  do_mellor_yamada=.FALSE.,
(PID.TID 0000.0001) > /
(PID.TID 0000.0001) >
(PID.TID 0000.0001) > &diffusivity_nml
(PID.TID 0000.0001) >#  fixed_depth, depth_0, frac_inner,
(PID.TID 0000.0001) >#  rich_crit_pbl, entr_ratio, parcel_buoy,
(PID.TID 0000.0001) >#  znom, free_atm_diff, free_atm_skyhi_diff,
(PID.TID 0000.0001) >#  pbl_mcm, rich_crit_diff, mix_len, rich_prandtl,
(PID.TID 0000.0001) >#  background_m, background_t, ampns, ampns_max,
(PID.TID 0000.0001) >#  do_virtual_non_mcm
(PID.TID 0000.0001) > /
(PID.TID 0000.0001) >
(PID.TID 0000.0001) > &monin_obukhov_nml
(PID.TID 0000.0001) > /
(PID.TID 0000.0001) >
(PID.TID 0000.0001) > &my25_turb_nml
(PID.TID 0000.0001) > /
(PID.TID 0000.0001) >
(PID.TID 0000.0001) > &shallow_conv_nml
(PID.TID 0000.0001) > /
(PID.TID 0000.0001) >
(PID.TID 0000.0001) > &mixed_layer_nml
(PID.TID 0000.0001) ># evaporation, qflux_amp, depth, qflux_width
(PID.TID 0000.0001) >  depth=10.,
(PID.TID 0000.0001) > /
(PID.TID 0000.0001) 
(PID.TID 0000.0001) RADIATION_INIT: finished reading data.atm_gray
(PID.TID 0000.0001) VERT_TURB_DRIVER_INIT: opening data.atm_gray
(PID.TID 0000.0001)  OPEN_COPY_DATA_FILE: opening file data.atm_gray
(PID.TID 0000.0001) // =======================================================
(PID.TID 0000.0001) // Parameter file "data.atm_gray"
(PID.TID 0000.0001) // =======================================================
(PID.TID 0000.0001) >
(PID.TID 0000.0001) > &atmosphere_nml
(PID.TID 0000.0001) >    turb = .TRUE.,
(PID.TID 0000.0001) >    ldry_convection = .false.,
(PID.TID 0000.0001) >    lwet_convection = .TRUE.,
(PID.TID 0000.0001) >    do_virtual = .false.,
(PID.TID 0000.0001) >    two_stream = .true.,
(PID.TID 0000.0001) >    mixed_layer_bc = .false.,
(PID.TID 0000.0001) >    roughness_heat = 0.05,
(PID.TID 0000.0001) >    roughness_moist = 0.05,
(PID.TID 0000.0001) >    roughness_mom = 0.05,
(PID.TID 0000.0001) > /
(PID.TID 0000.0001) >
(PID.TID 0000.0001) > &radiation_nml
(PID.TID 0000.0001) >  solar_constant= 1365.,
(PID.TID 0000.0001) >  del_sol=1.,
(PID.TID 0000.0001) ># ir_tau_eq=
(PID.TID 0000.0001) ># ir_tau_pole=
(PID.TID 0000.0001) >  atm_abs= 0.22,
(PID.TID 0000.0001) ># value that Ruth is using as default:
(PID.TID 0000.0001) ># atm_abs= 0.2486,
(PID.TID 0000.0001) ># sw_diff=
(PID.TID 0000.0001) ># linear_tau=
(PID.TID 0000.0001) ># del_sw=
(PID.TID 0000.0001) >  albedo_value=0.38,
(PID.TID 0000.0001) ># window=
(PID.TID 0000.0001) ># wv_exponent=
(PID.TID 0000.0001) ># solar_exponent=
(PID.TID 0000.0001) >  wv_exponent=0.,
(PID.TID 0000.0001) > /
(PID.TID 0000.0001) >
(PID.TID 0000.0001) > &lscale_cond_nml
(PID.TID 0000.0001) ># hc =
(PID.TID 0000.0001) ># do_evap=
(PID.TID 0000.0001) > /
(PID.TID 0000.0001) >
(PID.TID 0000.0001) > &dargan_bettsmiller_nml
(PID.TID 0000.0001) >#  tau_bm =,
(PID.TID 0000.0001) >#  rhbm =,
(PID.TID 0000.0001) >#  do_shallower=,
(PID.TID 0000.0001) >#  do_changeqref=,
(PID.TID 0000.0001) >#  do_envsat=,
(PID.TID 0000.0001) >#  do_taucape=,
(PID.TID 0000.0001) >#  capetaubm=,
(PID.TID 0000.0001) >#  tau_min =,
(PID.TID 0000.0001) >#  do_virtual=,
(PID.TID 0000.0001) >#  do_bm_shift=,
(PID.TID 0000.0001) > /
(PID.TID 0000.0001) >
(PID.TID 0000.0001) > &surface_flux_nml
(PID.TID 0000.0001) > /
(PID.TID 0000.0001) >
(PID.TID 0000.0001) > &vert_turb_driver_nml
(PID.TID 0000.0001) >#  do_shallow_conv, do_mellor_yamada,
(PID.TID 0000.0001) >#  gust_scheme, constant_gust, use_tau,
(PID.TID 0000.0001) >#  do_molecular_diffusion
(PID.TID 0000.0001) >  do_mellor_yamada=.FALSE.,
(PID.TID 0000.0001) > /
(PID.TID 0000.0001) >
(PID.TID 0000.0001) > &diffusivity_nml
(PID.TID 0000.0001) >#  fixed_depth, depth_0, frac_inner,
(PID.TID 0000.0001) >#  rich_crit_pbl, entr_ratio, parcel_buoy,
(PID.TID 0000.0001) >#  znom, free_atm_diff, free_atm_skyhi_diff,
(PID.TID 0000.0001) >#  pbl_mcm, rich_crit_diff, mix_len, rich_prandtl,
(PID.TID 0000.0001) >#  background_m, background_t, ampns, ampns_max,
(PID.TID 0000.0001) >#  do_virtual_non_mcm
(PID.TID 0000.0001) > /
(PID.TID 0000.0001) >
(PID.TID 0000.0001) > &monin_obukhov_nml
(PID.TID 0000.0001) > /
(PID.TID 0000.0001) >
(PID.TID 0000.0001) > &my25_turb_nml
(PID.TID 0000.0001) > /
(PID.TID 0000.0001) >
(PID.TID 0000.0001) > &shallow_conv_nml
(PID.TID 0000.0001) > /
(PID.TID 0000.0001) >
(PID.TID 0000.0001) > &mixed_layer_nml
(PID.TID 0000.0001) ># evaporation, qflux_amp, depth, qflux_width
(PID.TID 0000.0001) >  depth=10.,
(PID.TID 0000.0001) > /
(PID.TID 0000.0001) 
(PID.TID 0000.0001) VERT_TURB_DRIVER_INIT: finished reading data.atm_gray
(PID.TID 0000.0001) ------------------------------------------------------------
(PID.TID 0000.0001) DIAGNOSTICS_SET_LEVELS: done
(PID.TID 0000.0001)  Total Nb of available Diagnostics: ndiagt=   208
(PID.TID 0000.0001)  write list of available Diagnostics to file: available_diagnostics.log
(PID.TID 0000.0001) SETDIAG: Allocate  1 x  1 Levels for Diagnostic #    23 ETAN
(PID.TID 0000.0001) SETDIAG: Allocate  1 x  1 Levels for Diagnostic #    24 ETANSQ
(PID.TID 0000.0001) SETDIAG: Allocate  1 x  1 Levels for Diagnostic #    25 DETADT2
(PID.TID 0000.0001) SETDIAG: Allocate  1 x  1 Levels for Diagnostic #   195 AtPhCnvP
(PID.TID 0000.0001) SETDIAG: Allocate  1 x  1 Levels for Diagnostic #   196 AtPhLscP
(PID.TID 0000.0001) SETDIAG: Allocate  1 x  1 Levels for Diagnostic #   202 AtPhSens
(PID.TID 0000.0001) SETDIAG: Allocate  1 x  1 Levels for Diagnostic #   203 AtPhEvap
(PID.TID 0000.0001) SETDIAG: Allocate  1 x  1 Levels for Diagnostic #   204 AtPhTauX
(PID.TID 0000.0001) SETDIAG: Allocate  1 x  1 Levels for Diagnostic #   205 AtPhTauY
(PID.TID 0000.0001) SETDIAG: Allocate  1 x  1 Levels for Diagnostic #   188 AtPh_SST
(PID.TID 0000.0001) SETDIAG: Allocate  1 x  1 Levels for Diagnostic #   197 AtPhInSR
(PID.TID 0000.0001) SETDIAG: Allocate  1 x  1 Levels for Diagnostic #   198 AtPhOLR
(PID.TID 0000.0001) SETDIAG: Allocate  1 x  1 Levels for Diagnostic #   199 AtPhNSSR
(PID.TID 0000.0001) SETDIAG: Allocate  1 x  1 Levels for Diagnostic #   200 AtPhDSLR
(PID.TID 0000.0001) SETDIAG: Allocate  1 x  1 Levels for Diagnostic #   201 AtPhUSLR
(PID.TID 0000.0001) SETDIAG: Allocate 26 x  1 Levels for Diagnostic #    29 UVEL
(PID.TID 0000.0001) SETDIAG: Allocate 26 x  1 Levels for Diagnostic #    30 VVEL
(PID.TID 0000.0001) SETDIAG: Allocate 26 x  1 Levels for Diagnostic #    31 WVEL
(PID.TID 0000.0001) SETDIAG: Allocate 26 x  1 Levels for Diagnostic #    26 THETA
(PID.TID 0000.0001) SETDIAG: Allocate 26 x  1 Levels for Diagnostic #    27 SALT
(PID.TID 0000.0001) SETDIAG: Allocate 26 x  1 Levels for Diagnostic #    34 UVELSQ
(PID.TID 0000.0001) SETDIAG: Allocate 26 x  1 Levels for Diagnostic #    35 VVELSQ
(PID.TID 0000.0001) SETDIAG: Allocate 26 x  1 Levels for Diagnostic #    36 WVELSQ
(PID.TID 0000.0001) SETDIAG: Allocate 26 x  1 Levels for Diagnostic #    32 THETASQ
(PID.TID 0000.0001) SETDIAG: Allocate 26 x  1 Levels for Diagnostic #    33 SALTSQ
(PID.TID 0000.0001) SETDIAG: Allocate 26 x  1 Levels for Diagnostic #    43 UVELMASS
(PID.TID 0000.0001) SETDIAG: Allocate 26 x  1 Levels for Diagnostic #    44 VVELMASS
(PID.TID 0000.0001) SETDIAG: Allocate 26 x  1 Levels for Diagnostic #    39 UV_VEL_C
(PID.TID 0000.0001) SETDIAG: Allocate 26 x  1 Levels for Diagnostic #    28 RELHUM
(PID.TID 0000.0001) SETDIAG: Allocate 26 x  1 Levels for Diagnostic #   189 AtPhdTdt
(PID.TID 0000.0001) SETDIAG: Allocate 26 x  1 Levels for Diagnostic #   190 AtPhdQdt
(PID.TID 0000.0001) SETDIAG: Allocate 26 x  1 Levels for Diagnostic #   191 AtPhdUdt
(PID.TID 0000.0001) SETDIAG: Allocate 26 x  1 Levels for Diagnostic #   192 AtPhdVdt
(PID.TID 0000.0001) SETDIAG: Allocate 26 x  1 Levels for Diagnostic #   206 AtPhdtTg
(PID.TID 0000.0001) SETDIAG: Allocate 26 x  1 Levels for Diagnostic #   207 AtPhdtQg
(PID.TID 0000.0001) SETDIAG: Allocate 26 x  1 Levels for Diagnostic #   193 AtPhDifT
(PID.TID 0000.0001) SETDIAG: Allocate 26 x  1 Levels for Diagnostic #   194 AtPhDifM
(PID.TID 0000.0001)   space allocated for all diagnostics:     587 levels
(PID.TID 0000.0001)   set mate pointer for diag #    29  UVEL     , Parms: UUR     MR , mate:    30
(PID.TID 0000.0001)   set mate pointer for diag #    30  VVEL     , Parms: VVR     MR , mate:    29
(PID.TID 0000.0001)   set mate pointer for diag #    34  UVELSQ   , Parms: UURP    MR , mate:    35
(PID.TID 0000.0001)   set mate pointer for diag #    35  VVELSQ   , Parms: VVRP    MR , mate:    34
(PID.TID 0000.0001)   set mate pointer for diag #    43  UVELMASS , Parms: UUr     MR , mate:    44
(PID.TID 0000.0001)   set mate pointer for diag #    44  VVELMASS , Parms: VVr     MR , mate:    43
(PID.TID 0000.0001)   set mate pointer for diag #    39  UV_VEL_C , Parms: UMR     MR , mate:    39
(PID.TID 0000.0001)   set mate pointer for diag #   191  AtPhdUdt , Parms: UMR     MR , mate:   192
(PID.TID 0000.0001)   set mate pointer for diag #   192  AtPhdVdt , Parms: VMR     MR , mate:   191
(PID.TID 0000.0001) DIAGNOSTICS_SET_POINTERS: Set levels for Outp.Stream: surfDiag
(PID.TID 0000.0001)  Levels:       1.
(PID.TID 0000.0001) DIAGNOSTICS_SET_POINTERS: Set levels for Outp.Stream: dynDiag
(PID.TID 0000.0001)  Levels:       1.   2.   3.   4.   5.   6.   7.   8.   9.  10.  11.  12.  13.  14.  15.  16.  17.  18.  19.  20.
(PID.TID 0000.0001)  Levels:      21.  22.  23.  24.  25.  26.
(PID.TID 0000.0001) DIAGNOSTICS_SET_POINTERS: done
(PID.TID 0000.0001) ------------------------------------------------------------
(PID.TID 0000.0001) DIAGSTATS_SET_REGIONS: define no region
(PID.TID 0000.0001) ------------------------------------------------------------
(PID.TID 0000.0001) SETDIAG: Allocate  1 Levels for Stats-Diag #    23 ETAN
(PID.TID 0000.0001) SETDIAG: Allocate 26 Levels for Stats-Diag #    26 THETA
(PID.TID 0000.0001) SETDIAG: Allocate 26 Levels for Stats-Diag #    27 SALT
(PID.TID 0000.0001) SETDIAG: Allocate 26 Levels for Stats-Diag #    28 RELHUM
(PID.TID 0000.0001) SETDIAG: Allocate 26 Levels for Stats-Diag #    37 UE_VEL_C
(PID.TID 0000.0001) SETDIAG: Allocate 26 Levels for Stats-Diag #    38 VN_VEL_C
(PID.TID 0000.0001) SETDIAG: Allocate 26 Levels for Stats-Diag #    31 WVEL
(PID.TID 0000.0001) SETDIAG: Allocate 26 Levels for Stats-Diag #   189 AtPhdTdt
(PID.TID 0000.0001) SETDIAG: Allocate 26 Levels for Stats-Diag #   190 AtPhdQdt
(PID.TID 0000.0001) SETDIAG: Allocate 26 Levels for Stats-Diag #   191 AtPhdUdt
(PID.TID 0000.0001) SETDIAG: Allocate 26 Levels for Stats-Diag #   192 AtPhdVdt
(PID.TID 0000.0001) SETDIAG: Allocate 26 Levels for Stats-Diag #   193 AtPhDifT
(PID.TID 0000.0001) SETDIAG: Allocate 26 Levels for Stats-Diag #   194 AtPhDifM
(PID.TID 0000.0001) SETDIAG: Allocate 26 Levels for Stats-Diag #   208 AtPhDisH
(PID.TID 0000.0001) SETDIAG: Allocate 26 Levels for Stats-Diag #   206 AtPhdtTg
(PID.TID 0000.0001) SETDIAG: Allocate 26 Levels for Stats-Diag #   207 AtPhdtQg
(PID.TID 0000.0001) SETDIAG: Allocate 26 Levels for Stats-Diag #   187 SHAP_dKE
(PID.TID 0000.0001) SETDIAG: Allocate 26 Levels for Stats-Diag #    98 MoistCor
(PID.TID 0000.0001) SETDIAG: Allocate  1 Levels for Stats-Diag #   202 AtPhSens
(PID.TID 0000.0001) SETDIAG: Allocate  1 Levels for Stats-Diag #   203 AtPhEvap
(PID.TID 0000.0001) SETDIAG: Allocate  1 Levels for Stats-Diag #   204 AtPhTauX
(PID.TID 0000.0001) SETDIAG: Allocate  1 Levels for Stats-Diag #   205 AtPhTauY
(PID.TID 0000.0001) SETDIAG: Allocate  1 Levels for Stats-Diag #   195 AtPhCnvP
(PID.TID 0000.0001) SETDIAG: Allocate  1 Levels for Stats-Diag #   196 AtPhLscP
(PID.TID 0000.0001) SETDIAG: Allocate  1 Levels for Stats-Diag #   188 AtPh_SST
(PID.TID 0000.0001) SETDIAG: Allocate  1 Levels for Stats-Diag #   197 AtPhInSR
(PID.TID 0000.0001) SETDIAG: Allocate  1 Levels for Stats-Diag #   198 AtPhOLR
(PID.TID 0000.0001) SETDIAG: Allocate  1 Levels for Stats-Diag #   199 AtPhNSSR
(PID.TID 0000.0001) SETDIAG: Allocate  1 Levels for Stats-Diag #   200 AtPhDSLR
(PID.TID 0000.0001) SETDIAG: Allocate  1 Levels for Stats-Diag #   201 AtPhUSLR
(PID.TID 0000.0001)   space allocated for all stats-diags:     455 levels
(PID.TID 0000.0001) DIAGSTATS_SET_POINTERS: done
(PID.TID 0000.0001) ------------------------------------------------------------
(PID.TID 0000.0001) DIAGSTATS_INI_IO: open file: dynStDiag.0000000000.txt , unit=     9
(PID.TID 0000.0001) DIAGSTATS_INI_IO: open file: diffStDiag.0000000000.txt , unit=    10
(PID.TID 0000.0001) DIAGSTATS_INI_IO: open file: flxStDiag.0000000000.txt , unit=    16
(PID.TID 0000.0001) INI_GLOBAL_DOMAIN: Found  24 CS-corner Pts in the domain
(PID.TID 0000.0001) %MON fCori_max                    =   1.4574827780704E-04
(PID.TID 0000.0001) %MON fCori_min                    =  -1.4574827780704E-04
(PID.TID 0000.0001) %MON fCori_mean                   =   0.0000000000000E+00
(PID.TID 0000.0001) %MON fCori_sd                     =   8.4202189509968E-05
(PID.TID 0000.0001) %MON fCoriG_max                   =   1.4584247033981E-04
(PID.TID 0000.0001) %MON fCoriG_min                   =  -1.4584247033981E-04
(PID.TID 0000.0001) %MON fCoriG_mean                  =   2.2587545260115E-21
(PID.TID 0000.0001) %MON fCoriG_sd                    =   8.4202189509968E-05
(PID.TID 0000.0001) %MON fCoriCos_max                 =   1.4580166994612E-04
(PID.TID 0000.0001) %MON fCoriCos_min                 =   5.2407700865903E-06
(PID.TID 0000.0001) %MON fCoriCos_mean                =   1.1514045869113E-04
(PID.TID 0000.0001) %MON fCoriCos_sd                  =   3.0375849106513E-05
(PID.TID 0000.0001) INI_CG2D: CG2D normalisation factor =  9.9119603843467461E-06
(PID.TID 0000.0001) INI_CG2D: cg2dTolerance = 1.316081733113813E-10 (Area=5.0986421043E+14)
(PID.TID 0000.0001) 
(PID.TID 0000.0001) // =======================================================
(PID.TID 0000.0001) // Model configuration
(PID.TID 0000.0001) // =======================================================
(PID.TID 0000.0001) //
(PID.TID 0000.0001) // "Physical" paramters ( PARM01 in namelist )
(PID.TID 0000.0001) //
(PID.TID 0000.0001) buoyancyRelation = /* Type of relation to get Buoyancy */
(PID.TID 0000.0001)               'ATMOSPHERIC'
(PID.TID 0000.0001)     ;
(PID.TID 0000.0001) fluidIsAir   =  /* fluid major constituent is Air */
(PID.TID 0000.0001)                   T
(PID.TID 0000.0001)     ;
(PID.TID 0000.0001) fluidIsWater =  /* fluid major constituent is Water */
(PID.TID 0000.0001)                   F
(PID.TID 0000.0001)     ;
(PID.TID 0000.0001) usingPCoords =  /* use p (or p*) vertical coordinate */
(PID.TID 0000.0001)                   T
(PID.TID 0000.0001)     ;
(PID.TID 0000.0001) usingZCoords =  /* use z (or z*) vertical coordinate */
(PID.TID 0000.0001)                   F
(PID.TID 0000.0001)     ;
(PID.TID 0000.0001) tRef =   /* Reference temperature profile ( oC or K ) */
(PID.TID 0000.0001)                 2.951000000000000E+02,      /* K =  1 */
(PID.TID 0000.0001)                 2.952000000000000E+02,      /* K =  2 */
(PID.TID 0000.0001)                 2.954000000000000E+02,      /* K =  3 */
(PID.TID 0000.0001)                 2.956000000000000E+02,      /* K =  4 */
(PID.TID 0000.0001)                 2.960000000000000E+02,      /* K =  5 */
(PID.TID 0000.0001)                 2.966000000000000E+02,      /* K =  6 */
(PID.TID 0000.0001)                 2.973000000000000E+02,      /* K =  7 */
(PID.TID 0000.0001)                 2.982000000000000E+02,      /* K =  8 */
(PID.TID 0000.0001)                 2.993000000000000E+02,      /* K =  9 */
(PID.TID 0000.0001)                 3.006000000000000E+02,      /* K = 10 */
(PID.TID 0000.0001)                 3.024000000000000E+02,      /* K = 11 */
(PID.TID 0000.0001)                 3.059000000000000E+02,      /* K = 12 */
(PID.TID 0000.0001)                 3.118000000000000E+02,      /* K = 13 */
(PID.TID 0000.0001)                 3.218000000000000E+02,      /* K = 14 */
(PID.TID 0000.0001)                 3.383000000000000E+02,      /* K = 15 */
(PID.TID 0000.0001)                 3.595000000000000E+02,      /* K = 16 */
(PID.TID 0000.0001)                 3.828000000000000E+02,      /* K = 17 */
(PID.TID 0000.0001)                 4.086000000000000E+02,      /* K = 18 */
(PID.TID 0000.0001)                 4.375000000000000E+02,      /* K = 19 */
(PID.TID 0000.0001)                 4.706000000000000E+02,      /* K = 20 */
(PID.TID 0000.0001)                 5.092000000000000E+02,      /* K = 21 */
(PID.TID 0000.0001)                 5.558000000000000E+02,      /* K = 22 */
(PID.TID 0000.0001)                 6.149000000000000E+02,      /* K = 23 */
(PID.TID 0000.0001)                 6.963000000000000E+02,      /* K = 24 */
(PID.TID 0000.0001)                 8.272000000000000E+02,      /* K = 25 */
(PID.TID 0000.0001)                 1.153600000000000E+03       /* K = 26 */
(PID.TID 0000.0001)     ;
(PID.TID 0000.0001) sRef =   /* Reference salinity profile ( psu ) */
(PID.TID 0000.0001)    26 @  0.000000000000000E+00              /* K =  1: 26 */
(PID.TID 0000.0001)     ;
(PID.TID 0000.0001) viscAh  =   /* Lateral eddy viscosity ( m^2/s ) */
(PID.TID 0000.0001)                 0.000000000000000E+00
(PID.TID 0000.0001)     ;
(PID.TID 0000.0001) viscAhMax = /* Maximum lateral eddy viscosity ( m^2/s ) */
(PID.TID 0000.0001)                 1.000000000000000E+21
(PID.TID 0000.0001)     ;
(PID.TID 0000.0001) viscAhGrid = /* Grid dependent lateral eddy viscosity ( non-dim. ) */
(PID.TID 0000.0001)                 0.000000000000000E+00
(PID.TID 0000.0001)     ;
(PID.TID 0000.0001) useFullLeith = /* Use Full Form of Leith Viscosity on/off flag*/
(PID.TID 0000.0001)                   F
(PID.TID 0000.0001)     ;
(PID.TID 0000.0001) useStrainTensionVisc= /* Use StrainTension Form of Viscous Operator flag*/
(PID.TID 0000.0001)                   F
(PID.TID 0000.0001)     ;
(PID.TID 0000.0001) useAreaViscLength = /* Use area for visc length instead of geom. mean*/
(PID.TID 0000.0001)                   F
(PID.TID 0000.0001)     ;
(PID.TID 0000.0001) viscC2leith = /* Leith harmonic visc. factor (on grad(vort),non-dim.) */
(PID.TID 0000.0001)                 0.000000000000000E+00
(PID.TID 0000.0001)     ;
(PID.TID 0000.0001) viscC2leithD = /* Leith harmonic viscosity factor (on grad(div),non-dim.)*/
(PID.TID 0000.0001)                 0.000000000000000E+00
(PID.TID 0000.0001)     ;
(PID.TID 0000.0001) viscC2smag = /* Smagorinsky harmonic viscosity factor (non-dim.) */
(PID.TID 0000.0001)                 0.000000000000000E+00
(PID.TID 0000.0001)     ;
(PID.TID 0000.0001) viscA4  =   /* Lateral biharmonic viscosity ( m^4/s ) */
(PID.TID 0000.0001)                 0.000000000000000E+00
(PID.TID 0000.0001)     ;
(PID.TID 0000.0001) viscA4Max = /* Maximum biharmonic viscosity ( m^2/s ) */
(PID.TID 0000.0001)                 1.000000000000000E+21
(PID.TID 0000.0001)     ;
(PID.TID 0000.0001) viscA4Grid = /* Grid dependent biharmonic viscosity ( non-dim. ) */
(PID.TID 0000.0001)                 0.000000000000000E+00
(PID.TID 0000.0001)     ;
(PID.TID 0000.0001) viscC4leith = /* Leith biharm viscosity factor (on grad(vort), non-dim.)*/
(PID.TID 0000.0001)                 0.000000000000000E+00
(PID.TID 0000.0001)     ;
(PID.TID 0000.0001) viscC4leithD = /* Leith biharm viscosity factor (on grad(div), non-dim.) */
(PID.TID 0000.0001)                 0.000000000000000E+00
(PID.TID 0000.0001)     ;
(PID.TID 0000.0001) viscC4Smag = /* Smagorinsky biharm viscosity factor (non-dim) */
(PID.TID 0000.0001)                 0.000000000000000E+00
(PID.TID 0000.0001)     ;
(PID.TID 0000.0001) no_slip_sides =  /* Viscous BCs: No-slip sides */
(PID.TID 0000.0001)                   F
(PID.TID 0000.0001)     ;
(PID.TID 0000.0001) sideDragFactor = /* side-drag scaling factor (non-dim) */
(PID.TID 0000.0001)                 2.000000000000000E+00
(PID.TID 0000.0001)     ;
(PID.TID 0000.0001) viscArNr = /* vertical profile of vertical viscosity (Pa^2/s )*/
(PID.TID 0000.0001)    26 @  0.000000000000000E+00              /* K =  1: 26 */
(PID.TID 0000.0001)     ;
(PID.TID 0000.0001) no_slip_bottom =  /* Viscous BCs: No-slip bottom */
(PID.TID 0000.0001)                   F
(PID.TID 0000.0001)     ;
(PID.TID 0000.0001) bottomDragLinear = /* linear bottom-drag coefficient ( m/s ) */
(PID.TID 0000.0001)                 0.000000000000000E+00
(PID.TID 0000.0001)     ;
(PID.TID 0000.0001) bottomDragQuadratic = /* quadratic bottom-drag coefficient (-) */
(PID.TID 0000.0001)                 0.000000000000000E+00
(PID.TID 0000.0001)     ;
(PID.TID 0000.0001) diffKhT =   /* Laplacian diffusion of heat laterally ( m^2/s ) */
(PID.TID 0000.0001)                 0.000000000000000E+00
(PID.TID 0000.0001)     ;
(PID.TID 0000.0001) diffK4T =   /* Biharmonic diffusion of heat laterally ( m^4/s ) */
(PID.TID 0000.0001)                 0.000000000000000E+00
(PID.TID 0000.0001)     ;
(PID.TID 0000.0001) diffKhS =   /* Laplacian diffusion of salt laterally ( m^2/s ) */
(PID.TID 0000.0001)                 0.000000000000000E+00
(PID.TID 0000.0001)     ;
(PID.TID 0000.0001) diffK4S =   /* Biharmonic diffusion of salt laterally ( m^4/s ) */
(PID.TID 0000.0001)                 0.000000000000000E+00
(PID.TID 0000.0001)     ;
(PID.TID 0000.0001) diffKrNrT = /* vertical profile of vertical diffusion of Temp (Pa^2/s )*/
(PID.TID 0000.0001)    26 @  0.000000000000000E+00              /* K =  1: 26 */
(PID.TID 0000.0001)     ;
(PID.TID 0000.0001) diffKrNrS = /* vertical profile of vertical diffusion of Salt (Pa^2/s )*/
(PID.TID 0000.0001)    26 @  0.000000000000000E+00              /* K =  1: 26 */
(PID.TID 0000.0001)     ;
(PID.TID 0000.0001) diffKrBL79surf = /* Surface diffusion for Bryan and Lewis 79 ( m^2/s ) */
(PID.TID 0000.0001)                 0.000000000000000E+00
(PID.TID 0000.0001)     ;
(PID.TID 0000.0001) diffKrBL79deep = /* Deep diffusion for Bryan and Lewis 1979 ( m^2/s ) */
(PID.TID 0000.0001)                 0.000000000000000E+00
(PID.TID 0000.0001)     ;
(PID.TID 0000.0001) diffKrBL79scl = /* Depth scale for Bryan and Lewis 1979 ( m ) */
(PID.TID 0000.0001)                 2.000000000000000E+02
(PID.TID 0000.0001)     ;
(PID.TID 0000.0001) diffKrBL79Ho = /* Turning depth for Bryan and Lewis 1979 ( m ) */
(PID.TID 0000.0001)                -2.000000000000000E+03
(PID.TID 0000.0001)     ;
(PID.TID 0000.0001) ivdc_kappa = /* Implicit Vertical Diffusivity for Convection (Pa^2/s) */
(PID.TID 0000.0001)                 0.000000000000000E+00
(PID.TID 0000.0001)     ;
(PID.TID 0000.0001) hMixCriteria=  /* Criteria for mixed-layer diagnostic */
(PID.TID 0000.0001)                -8.000000000000000E-01
(PID.TID 0000.0001)     ;
(PID.TID 0000.0001) dRhoSmall =  /* Parameter for mixed-layer diagnostic */
(PID.TID 0000.0001)                 1.000000000000000E-06
(PID.TID 0000.0001)     ;
(PID.TID 0000.0001) hMixSmooth=  /* Smoothing parameter for mixed-layer diagnostic */
(PID.TID 0000.0001)                 0.000000000000000E+00
(PID.TID 0000.0001)     ;
(PID.TID 0000.0001) eosType =  /* Type of Equation of State */
(PID.TID 0000.0001)               'IDEALG'
(PID.TID 0000.0001)     ;
(PID.TID 0000.0001) celsius2K = /* 0 degree Celsius converted to Kelvin ( K ) */
(PID.TID 0000.0001)                 2.731500000000000E+02
(PID.TID 0000.0001)     ;
(PID.TID 0000.0001) atm_Rd =  /* gas constant for dry air ( J/kg/K ) */
(PID.TID 0000.0001)                 2.870400000000000E+02
(PID.TID 0000.0001)     ;
(PID.TID 0000.0001) atm_Cp =  /* specific heat (Cp) of dry air ( J/kg/K ) */
(PID.TID 0000.0001)                 1.004640000000000E+03
(PID.TID 0000.0001)     ;
(PID.TID 0000.0001) atm_kappa =  /* kappa (=Rd/Cp ) of dry air */
(PID.TID 0000.0001)                 2.857142857142857E-01
(PID.TID 0000.0001)     ;
(PID.TID 0000.0001) atm_Rq = /* water vap. specific vol. anomaly relative to dry air */
(PID.TID 0000.0001)                 6.078000000000000E-01
(PID.TID 0000.0001)     ;
(PID.TID 0000.0001) atm_Po =  /* standard reference pressure ( Pa ) */
(PID.TID 0000.0001)                 1.000000000000000E+05
(PID.TID 0000.0001)     ;
(PID.TID 0000.0001) integr_GeoPot =  /* select how the geopotential is integrated */
(PID.TID 0000.0001)                       2
(PID.TID 0000.0001)     ;
(PID.TID 0000.0001) selectFindRoSurf=  /* select how Surf.Ref. pressure is defined */
(PID.TID 0000.0001)                       1
(PID.TID 0000.0001)     ;
(PID.TID 0000.0001) rhoConst  = /* Reference density (Boussinesq)  ( kg/m^3 ) */
(PID.TID 0000.0001)                 1.000000000000000E+00
(PID.TID 0000.0001)     ;
(PID.TID 0000.0001) rhoFacC = /* normalized Reference density @ cell-Center (-) */
(PID.TID 0000.0001)    26 @  1.000000000000000E+00              /* K =  1: 26 */
(PID.TID 0000.0001)     ;
(PID.TID 0000.0001) rhoFacF = /* normalized Reference density @ W-Interface (-) */
(PID.TID 0000.0001)    27 @  1.000000000000000E+00              /* K =  1: 27 */
(PID.TID 0000.0001)     ;
(PID.TID 0000.0001) rhoConstFresh = /* Fresh-water reference density ( kg/m^3 ) */
(PID.TID 0000.0001)                 1.000000000000000E+00
(PID.TID 0000.0001)     ;
(PID.TID 0000.0001) gravity =   /* Gravitational acceleration ( m/s^2 ) */
(PID.TID 0000.0001)                 9.800000000000001E+00
(PID.TID 0000.0001)     ;
(PID.TID 0000.0001) gBaro =   /* Barotropic gravity ( m/s^2 ) */
(PID.TID 0000.0001)                 9.800000000000001E+00
(PID.TID 0000.0001)     ;
(PID.TID 0000.0001) rotationPeriod =   /* Rotation Period ( s ) */
(PID.TID 0000.0001)                 8.616400000000000E+04
(PID.TID 0000.0001)     ;
(PID.TID 0000.0001) omega =   /* Angular velocity ( rad/s ) */
(PID.TID 0000.0001)                 7.292123516990375E-05
(PID.TID 0000.0001)     ;
(PID.TID 0000.0001) f0 =   /* Reference coriolis parameter ( 1/s ) */
(PID.TID 0000.0001)                 1.000000000000000E-04
(PID.TID 0000.0001)     ;
(PID.TID 0000.0001) beta =   /* Beta ( 1/(m.s) ) */
(PID.TID 0000.0001)                 9.999999999999999E-12
(PID.TID 0000.0001)     ;
(PID.TID 0000.0001) fPrime =   /* Second coriolis parameter ( 1/s ) */
(PID.TID 0000.0001)                 0.000000000000000E+00
(PID.TID 0000.0001)     ;
(PID.TID 0000.0001) rigidLid =   /* Rigid lid on/off flag */
(PID.TID 0000.0001)                   F
(PID.TID 0000.0001)     ;
(PID.TID 0000.0001) implicitFreeSurface =   /* Implicit free surface on/off flag */
(PID.TID 0000.0001)                   T
(PID.TID 0000.0001)     ;
(PID.TID 0000.0001) freeSurfFac =   /* Implicit free surface factor */
(PID.TID 0000.0001)                 1.000000000000000E+00
(PID.TID 0000.0001)     ;
(PID.TID 0000.0001) implicSurfPress =  /* Surface Pressure implicit factor (0-1)*/
(PID.TID 0000.0001)                 1.000000000000000E+00
(PID.TID 0000.0001)     ;
(PID.TID 0000.0001) implicDiv2Dflow =  /* Barot. Flow Div. implicit factor (0-1)*/
(PID.TID 0000.0001)                 1.000000000000000E+00
(PID.TID 0000.0001)     ;
(PID.TID 0000.0001) uniformLin_PhiSurf = /* use uniform Bo_surf on/off flag*/
(PID.TID 0000.0001)                   F
(PID.TID 0000.0001)     ;
(PID.TID 0000.0001) uniformFreeSurfLev = /* free-surface level-index is uniform */
(PID.TID 0000.0001)                   F
(PID.TID 0000.0001)     ;
(PID.TID 0000.0001) hFacMin =   /* minimum partial cell factor (hFac) */
(PID.TID 0000.0001)                 1.000000000000000E+00
(PID.TID 0000.0001)     ;
(PID.TID 0000.0001) hFacMinDr = /* minimum partial cell thickness (Pa) */
(PID.TID 0000.0001)                 1.000000000000000E+00
(PID.TID 0000.0001)     ;
(PID.TID 0000.0001) exactConserv =  /* Exact Volume Conservation on/off flag*/
(PID.TID 0000.0001)                   T
(PID.TID 0000.0001)     ;
(PID.TID 0000.0001) linFSConserveTr = /* Tracer correction for Lin Free Surface on/off flag*/
(PID.TID 0000.0001)                   F
(PID.TID 0000.0001)     ;
(PID.TID 0000.0001) nonlinFreeSurf = /* Non-linear Free Surf. options (-1,0,1,2,3)*/
(PID.TID 0000.0001)                       4
(PID.TID 0000.0001)      -1,0= Off ; 1,2,3= On, 2=+rescale gU,gV, 3=+update cg2d solv.
(PID.TID 0000.0001)     ;
(PID.TID 0000.0001) hFacInf =   /* lower threshold for hFac (nonlinFreeSurf only)*/
(PID.TID 0000.0001)                 2.000000000000000E-01
(PID.TID 0000.0001)     ;
(PID.TID 0000.0001) hFacSup =   /* upper threshold for hFac (nonlinFreeSurf only)*/
(PID.TID 0000.0001)                 2.000000000000000E+00
(PID.TID 0000.0001)     ;
(PID.TID 0000.0001) select_rStar = /* r* Vertical coord. options (=0 r coord.; >0 uses r*)*/
(PID.TID 0000.0001)                       2
(PID.TID 0000.0001)     ;
(PID.TID 0000.0001) useRealFreshWaterFlux = /* Real Fresh Water Flux on/off flag*/
(PID.TID 0000.0001)                   F
(PID.TID 0000.0001)     ;
(PID.TID 0000.0001) temp_EvPrRn = /* Temp. of Evap/Prec/R (UNSET=use local T)(oC)*/
(PID.TID 0000.0001)                 1.234567000000000E+05
(PID.TID 0000.0001)     ;
(PID.TID 0000.0001) salt_EvPrRn = /* Salin. of Evap/Prec/R (UNSET=use local S)(psu)*/
(PID.TID 0000.0001)                 0.000000000000000E+00
(PID.TID 0000.0001)     ;
(PID.TID 0000.0001) selectAddFluid = /* option for mass source/sink of fluid (=0: off) */
(PID.TID 0000.0001)                       0
(PID.TID 0000.0001)     ;
(PID.TID 0000.0001) temp_addMass = /* Temp. of addMass array (UNSET=use local T)(oC)*/
(PID.TID 0000.0001)                 1.234567000000000E+05
(PID.TID 0000.0001)     ;
(PID.TID 0000.0001) salt_addMass = /* Salin. of addMass array (UNSET=use local S)(psu)*/
(PID.TID 0000.0001)                 0.000000000000000E+00
(PID.TID 0000.0001)     ;
(PID.TID 0000.0001) convertFW2Salt = /* convert F.W. Flux to Salt Flux (-1=use local S)(psu)*/
(PID.TID 0000.0001)                 3.500000000000000E+01
(PID.TID 0000.0001)     ;
(PID.TID 0000.0001) use3Dsolver = /* use 3-D pressure solver on/off flag */
(PID.TID 0000.0001)                   F
(PID.TID 0000.0001)     ;
(PID.TID 0000.0001) nonHydrostatic =  /* Non-Hydrostatic on/off flag */
(PID.TID 0000.0001)                   F
(PID.TID 0000.0001)     ;
(PID.TID 0000.0001) nh_Am2 = /* Non-Hydrostatic terms scaling factor */
(PID.TID 0000.0001)                 1.000000000000000E+00
(PID.TID 0000.0001)     ;
(PID.TID 0000.0001) implicitNHPress = /* Non-Hyd Pressure implicit factor (0-1)*/
(PID.TID 0000.0001)                 1.000000000000000E+00
(PID.TID 0000.0001)     ;
(PID.TID 0000.0001) selectNHfreeSurf = /* Non-Hyd (free-)Surface option */
(PID.TID 0000.0001)                       0
(PID.TID 0000.0001)     ;
(PID.TID 0000.0001) quasiHydrostatic = /* Quasi-Hydrostatic on/off flag */
(PID.TID 0000.0001)                   F
(PID.TID 0000.0001)     ;
(PID.TID 0000.0001) calc_wVelocity = /* vertical velocity calculation on/off flag */
(PID.TID 0000.0001)                   T
(PID.TID 0000.0001)     ;
(PID.TID 0000.0001) momStepping =  /* Momentum equation on/off flag */
(PID.TID 0000.0001)                   T
(PID.TID 0000.0001)     ;
(PID.TID 0000.0001) vectorInvariantMomentum= /* Vector-Invariant Momentum on/off */
(PID.TID 0000.0001)                   T
(PID.TID 0000.0001)     ;
(PID.TID 0000.0001) momAdvection =  /* Momentum advection on/off flag */
(PID.TID 0000.0001)                   T
(PID.TID 0000.0001)     ;
(PID.TID 0000.0001) momViscosity =  /* Momentum viscosity on/off flag */
(PID.TID 0000.0001)                   T
(PID.TID 0000.0001)     ;
(PID.TID 0000.0001) momImplVertAdv= /* Momentum implicit vert. advection on/off*/
(PID.TID 0000.0001)                   F
(PID.TID 0000.0001)     ;
(PID.TID 0000.0001) implicitViscosity = /* Implicit viscosity on/off flag */
(PID.TID 0000.0001)                   F
(PID.TID 0000.0001)     ;
(PID.TID 0000.0001) metricTerms =  /* metric-Terms on/off flag */
(PID.TID 0000.0001)                   F
(PID.TID 0000.0001)     ;
(PID.TID 0000.0001) useNHMTerms = /* Non-Hydrostatic Metric-Terms on/off */
(PID.TID 0000.0001)                   F
(PID.TID 0000.0001)     ;
(PID.TID 0000.0001) selectCoriMap = /* Coriolis Map options (0,1,2,3)*/
(PID.TID 0000.0001)                       2
(PID.TID 0000.0001)     0= f-Plane ; 1= Beta-Plane ; 2= Spherical ; 3= read from file
(PID.TID 0000.0001)     ;
(PID.TID 0000.0001) use3dCoriolis = /* 3-D Coriolis on/off flag */
(PID.TID 0000.0001)                   F
(PID.TID 0000.0001)     ;
(PID.TID 0000.0001) useCoriolis =  /* Coriolis on/off flag */
(PID.TID 0000.0001)                   T
(PID.TID 0000.0001)     ;
(PID.TID 0000.0001) useCDscheme =  /* CD scheme on/off flag */
(PID.TID 0000.0001)                   F
(PID.TID 0000.0001)     ;
(PID.TID 0000.0001) useEnergyConservingCoriolis= /* Flx-Form Coriolis scheme flag */
(PID.TID 0000.0001)                   F
(PID.TID 0000.0001)     ;
(PID.TID 0000.0001) useJamartWetPoints= /* Coriolis WetPoints method flag */
(PID.TID 0000.0001)                   F
(PID.TID 0000.0001)     ;
(PID.TID 0000.0001) useJamartMomAdv= /* V.I Non-linear terms Jamart flag */
(PID.TID 0000.0001)                   F
(PID.TID 0000.0001)     ;
(PID.TID 0000.0001) useAbsVorticity= /* V.I Works with f+zeta in Coriolis */
(PID.TID 0000.0001)                   T
(PID.TID 0000.0001)     ;
(PID.TID 0000.0001) selectVortScheme= /* V.I Scheme selector for Vorticity-Term */
(PID.TID 0000.0001)                       3
(PID.TID 0000.0001)    = 0 : enstrophy (Shallow-Water Eq.) conserving scheme by Sadourny, JAS 75
(PID.TID 0000.0001)    = 1 : same as 0 with modified hFac
(PID.TID 0000.0001)    = 2 : energy conserving scheme (used by Sadourny in JAS 75 paper)
(PID.TID 0000.0001)    = 3 : energy (general) and enstrophy (2D, nonDiv.) conserving scheme
(PID.TID 0000.0001)          from Sadourny (Burridge & Haseler, ECMWF Rep.4, 1977)
(PID.TID 0000.0001)     ;
(PID.TID 0000.0001) upwindVorticity= /* V.I Upwind bias vorticity flag */
(PID.TID 0000.0001)                   F
(PID.TID 0000.0001)     ;
(PID.TID 0000.0001) highOrderVorticity= /* V.I High order vort. advect. flag */
(PID.TID 0000.0001)                   F
(PID.TID 0000.0001)     ;
(PID.TID 0000.0001) upwindShear= /* V.I Upwind vertical Shear advection flag */
(PID.TID 0000.0001)                   F
(PID.TID 0000.0001)     ;
(PID.TID 0000.0001) selectKEscheme= /* V.I Kinetic Energy scheme selector */
(PID.TID 0000.0001)                       3
(PID.TID 0000.0001)     ;
(PID.TID 0000.0001) momForcing =  /* Momentum forcing on/off flag */
(PID.TID 0000.0001)                   T
(PID.TID 0000.0001)     ;
(PID.TID 0000.0001) momPressureForcing =  /* Momentum pressure term on/off flag */
(PID.TID 0000.0001)                   T
(PID.TID 0000.0001)     ;
(PID.TID 0000.0001) implicitIntGravWave= /* Implicit Internal Gravity Wave flag */
(PID.TID 0000.0001)                   F
(PID.TID 0000.0001)     ;
(PID.TID 0000.0001) staggerTimeStep =    /* Stagger time stepping on/off flag */
(PID.TID 0000.0001)                   T
(PID.TID 0000.0001)     ;
(PID.TID 0000.0001) doResetHFactors = /* reset thickness factors @ each time-step */
(PID.TID 0000.0001)                   F
(PID.TID 0000.0001)     ;
(PID.TID 0000.0001) multiDimAdvection =  /* enable/disable Multi-Dim Advection */
(PID.TID 0000.0001)                   T
(PID.TID 0000.0001)     ;
(PID.TID 0000.0001) useMultiDimAdvec =   /* Multi-Dim Advection is/is-not used */
(PID.TID 0000.0001)                   T
(PID.TID 0000.0001)     ;
(PID.TID 0000.0001) implicitDiffusion = /* Implicit Diffusion on/off flag */
(PID.TID 0000.0001)                   F
(PID.TID 0000.0001)     ;
(PID.TID 0000.0001) tempStepping =  /* Temperature equation on/off flag */
(PID.TID 0000.0001)                   T
(PID.TID 0000.0001)     ;
(PID.TID 0000.0001) tempAdvection = /* Temperature advection on/off flag */
(PID.TID 0000.0001)                   T
(PID.TID 0000.0001)     ;
(PID.TID 0000.0001) tempImplVertAdv = /* Temp. implicit vert. advection on/off */
(PID.TID 0000.0001)                   F
(PID.TID 0000.0001)     ;
(PID.TID 0000.0001) tempForcing  =  /* Temperature forcing on/off flag */
(PID.TID 0000.0001)                   T
(PID.TID 0000.0001)     ;
(PID.TID 0000.0001) addFrictionHeating= /* account for frictional heating */
(PID.TID 0000.0001)                   T
(PID.TID 0000.0001)     ;
(PID.TID 0000.0001) doThetaClimRelax = /* apply SST relaxation on/off flag */
(PID.TID 0000.0001)                   F
(PID.TID 0000.0001)     ;
(PID.TID 0000.0001) tempIsActiveTr = /* Temp. is a dynamically Active Tracer */
(PID.TID 0000.0001)                   T
(PID.TID 0000.0001)     ;
(PID.TID 0000.0001) saltStepping =  /* Salinity equation on/off flag */
(PID.TID 0000.0001)                   T
(PID.TID 0000.0001)     ;
(PID.TID 0000.0001) saltAdvection = /* Salinity advection on/off flag */
(PID.TID 0000.0001)                   T
(PID.TID 0000.0001)     ;
(PID.TID 0000.0001) saltImplVertAdv = /* Sali. implicit vert. advection on/off */
(PID.TID 0000.0001)                   F
(PID.TID 0000.0001)     ;
(PID.TID 0000.0001) saltForcing  =  /* Salinity forcing on/off flag */
(PID.TID 0000.0001)                   T
(PID.TID 0000.0001)     ;
(PID.TID 0000.0001) doSaltClimRelax = /* apply SSS relaxation on/off flag */
(PID.TID 0000.0001)                   F
(PID.TID 0000.0001)     ;
(PID.TID 0000.0001) saltIsActiveTr = /* Salt  is a dynamically Active Tracer */
(PID.TID 0000.0001)                   T
(PID.TID 0000.0001)     ;
(PID.TID 0000.0001)  readBinaryPrec = /* Precision used for reading binary files */
(PID.TID 0000.0001)                      64
(PID.TID 0000.0001)     ;
(PID.TID 0000.0001) writeBinaryPrec = /* Precision used for writing binary files */
(PID.TID 0000.0001)                      64
(PID.TID 0000.0001)     ;
(PID.TID 0000.0001)  globalFiles = /* write "global" (=not per tile) files */
(PID.TID 0000.0001)                   F
(PID.TID 0000.0001)     ;
(PID.TID 0000.0001)  useSingleCpuIO = /* only master MPI process does I/O */
(PID.TID 0000.0001)                   T
(PID.TID 0000.0001)     ;
(PID.TID 0000.0001) /* debLev[*]  : level of debug & auxiliary message printing */
(PID.TID 0000.0001) debLevZero =  0 ; /* level of disabled aux. msg printing */
(PID.TID 0000.0001)    debLevA =  1 ; /* level of minimum  aux. msg printing */
(PID.TID 0000.0001)    debLevB =  2 ; /* level of low aux. print (report read-file opening)*/
(PID.TID 0000.0001)    debLevC =  3 ; /* level of moderate debug prt (most pkgs debug msg) */
(PID.TID 0000.0001)    debLevD =  4 ; /* level of enhanced debug prt (add DEBUG_STATS prt) */
(PID.TID 0000.0001)    debLevE =  5 ; /* level of extensive debug printing */
(PID.TID 0000.0001) debugLevel =  /* select debug printing level */
(PID.TID 0000.0001)                       2
(PID.TID 0000.0001)     ;
(PID.TID 0000.0001) //
(PID.TID 0000.0001) // Elliptic solver(s) paramters ( PARM02 in namelist )
(PID.TID 0000.0001) //
(PID.TID 0000.0001) cg2dMaxIters =   /* Upper limit on 2d con. grad iterations  */
(PID.TID 0000.0001)                     200
(PID.TID 0000.0001)     ;
(PID.TID 0000.0001) cg2dChkResFreq =   /* 2d con. grad convergence test frequency */
(PID.TID 0000.0001)                       1
(PID.TID 0000.0001)     ;
(PID.TID 0000.0001) cg2dUseMinResSol= /* use cg2d last-iter(=0) / min-resid.(=1) solution */
(PID.TID 0000.0001)                       0
(PID.TID 0000.0001)     ;
(PID.TID 0000.0001) cg2dTargetResidual =   /* 2d con. grad target residual  */
(PID.TID 0000.0001)                 1.000000000000000E-07
(PID.TID 0000.0001)     ;
(PID.TID 0000.0001) cg2dTargetResWunit =   /* CG2d target residual [W units] */
(PID.TID 0000.0001)                 1.000000000000000E-17
(PID.TID 0000.0001)     ;
(PID.TID 0000.0001) cg2dPreCondFreq =   /* Freq. for updating cg2d preconditioner */
(PID.TID 0000.0001)                       1
(PID.TID 0000.0001)     ;
(PID.TID 0000.0001) useSRCGSolver =  /* use single reduction CG solver(s) */
(PID.TID 0000.0001)                   F
(PID.TID 0000.0001)     ;
(PID.TID 0000.0001) printResidualFreq = /* Freq. for printing CG residual */
(PID.TID 0000.0001)                       0
(PID.TID 0000.0001)     ;
(PID.TID 0000.0001) //
(PID.TID 0000.0001) // Time stepping paramters ( PARM03 in namelist )
(PID.TID 0000.0001) //
(PID.TID 0000.0001) deltaTMom =   /* Momentum equation timestep ( s ) */
(PID.TID 0000.0001)                 3.840000000000000E+02
(PID.TID 0000.0001)     ;
(PID.TID 0000.0001) deltaTFreeSurf = /* FreeSurface equation timestep ( s ) */
(PID.TID 0000.0001)                 3.840000000000000E+02
(PID.TID 0000.0001)     ;
(PID.TID 0000.0001) dTtracerLev =  /* Tracer equation timestep ( s ) */
(PID.TID 0000.0001)    26 @  3.840000000000000E+02              /* K =  1: 26 */
(PID.TID 0000.0001)     ;
(PID.TID 0000.0001) deltaTClock  =   /* Model clock timestep ( s ) */
(PID.TID 0000.0001)                 3.840000000000000E+02
(PID.TID 0000.0001)     ;
(PID.TID 0000.0001) cAdjFreq =   /* Convective adjustment interval ( s ) */
(PID.TID 0000.0001)                 0.000000000000000E+00
(PID.TID 0000.0001)     ;
(PID.TID 0000.0001) momForcingOutAB = /* =1: take Momentum Forcing out of Adams-Bash. stepping */
(PID.TID 0000.0001)                       1
(PID.TID 0000.0001)     ;
(PID.TID 0000.0001) tracForcingOutAB = /* =1: take T,S,pTr Forcing out of Adams-Bash. stepping */
(PID.TID 0000.0001)                       1
(PID.TID 0000.0001)     ;
(PID.TID 0000.0001) momDissip_In_AB = /* put Dissipation Tendency in Adams-Bash. stepping */
(PID.TID 0000.0001)                   T
(PID.TID 0000.0001)     ;
(PID.TID 0000.0001) doAB_onGtGs = /* apply AB on Tendencies (rather than on T,S)*/
(PID.TID 0000.0001)                   T
(PID.TID 0000.0001)     ;
(PID.TID 0000.0001) abEps =   /* Adams-Bashforth-2 stabilizing weight */
(PID.TID 0000.0001)                 1.000000000000000E-01
(PID.TID 0000.0001)     ;
(PID.TID 0000.0001) pickupStrictlyMatch= /* stop if pickup do not strictly match */
(PID.TID 0000.0001)                   T
(PID.TID 0000.0001)     ;
(PID.TID 0000.0001) nIter0   =   /* Run starting timestep number */
(PID.TID 0000.0001)                       0
(PID.TID 0000.0001)     ;
(PID.TID 0000.0001) nTimeSteps = /* Number of timesteps */
(PID.TID 0000.0001)                      10
(PID.TID 0000.0001)     ;
(PID.TID 0000.0001) nEndIter =   /* Run ending timestep number */
(PID.TID 0000.0001)                      10
(PID.TID 0000.0001)     ;
(PID.TID 0000.0001) baseTime =   /* Model base time ( s ) */
(PID.TID 0000.0001)                 0.000000000000000E+00
(PID.TID 0000.0001)     ;
(PID.TID 0000.0001) startTime =  /* Run start time ( s ) */
(PID.TID 0000.0001)                 0.000000000000000E+00
(PID.TID 0000.0001)     ;
(PID.TID 0000.0001) endTime  =   /* Integration ending time ( s ) */
(PID.TID 0000.0001)                 3.840000000000000E+03
(PID.TID 0000.0001)     ;
(PID.TID 0000.0001) pChkPtFreq = /* Permanent restart/pickup file interval ( s ) */
(PID.TID 0000.0001)                 3.110400000000000E+07
(PID.TID 0000.0001)     ;
(PID.TID 0000.0001) chkPtFreq  = /* Rolling restart/pickup file interval ( s ) */
(PID.TID 0000.0001)                 1.555200000000000E+07
(PID.TID 0000.0001)     ;
(PID.TID 0000.0001) pickup_write_mdsio =   /* Model IO flag. */
(PID.TID 0000.0001)                   T
(PID.TID 0000.0001)     ;
(PID.TID 0000.0001) pickup_read_mdsio =   /* Model IO flag. */
(PID.TID 0000.0001)                   T
(PID.TID 0000.0001)     ;
(PID.TID 0000.0001) pickup_write_immed =   /* Model IO flag. */
(PID.TID 0000.0001)                   F
(PID.TID 0000.0001)     ;
(PID.TID 0000.0001) writePickupAtEnd =   /* Model IO flag. */
(PID.TID 0000.0001)                   T
(PID.TID 0000.0001)     ;
(PID.TID 0000.0001) dumpFreq =   /* Model state write out interval ( s ). */
(PID.TID 0000.0001)                 1.555200000000000E+07
(PID.TID 0000.0001)     ;
(PID.TID 0000.0001) dumpInitAndLast= /* write out Initial & Last iter. model state */
(PID.TID 0000.0001)                   T
(PID.TID 0000.0001)     ;
(PID.TID 0000.0001) snapshot_mdsio =   /* Model IO flag. */
(PID.TID 0000.0001)                   T
(PID.TID 0000.0001)     ;
(PID.TID 0000.0001) monitorFreq =   /* Monitor output interval ( s ). */
(PID.TID 0000.0001)                 1.000000000000000E+00
(PID.TID 0000.0001)     ;
(PID.TID 0000.0001) monitorSelect = /* select group of variables to monitor */
(PID.TID 0000.0001)                       2
(PID.TID 0000.0001)     ;
(PID.TID 0000.0001) monitor_stdio =   /* Model IO flag. */
(PID.TID 0000.0001)                   T
(PID.TID 0000.0001)     ;
(PID.TID 0000.0001) externForcingPeriod =   /* forcing period (s) */
(PID.TID 0000.0001)                 0.000000000000000E+00
(PID.TID 0000.0001)     ;
(PID.TID 0000.0001) externForcingCycle =   /* period of the cyle (s). */
(PID.TID 0000.0001)                 0.000000000000000E+00
(PID.TID 0000.0001)     ;
(PID.TID 0000.0001) tauThetaClimRelax =   /* relaxation time scale (s) */
(PID.TID 0000.0001)                 0.000000000000000E+00
(PID.TID 0000.0001)     ;
(PID.TID 0000.0001) tauSaltClimRelax =   /* relaxation time scale (s) */
(PID.TID 0000.0001)                 0.000000000000000E+00
(PID.TID 0000.0001)     ;
(PID.TID 0000.0001) latBandClimRelax =   /* max. Lat. where relaxation */
(PID.TID 0000.0001)                 1.800000000000000E+02
(PID.TID 0000.0001)     ;
(PID.TID 0000.0001) //
(PID.TID 0000.0001) // Gridding paramters ( PARM04 in namelist )
(PID.TID 0000.0001) //
(PID.TID 0000.0001) usingCartesianGrid = /* Cartesian coordinates flag ( True/False ) */
(PID.TID 0000.0001)                   F
(PID.TID 0000.0001)     ;
(PID.TID 0000.0001) usingCylindricalGrid = /* Cylindrical coordinates flag ( True/False ) */
(PID.TID 0000.0001)                   F
(PID.TID 0000.0001)     ;
(PID.TID 0000.0001) usingSphericalPolarGrid = /* Spherical coordinates flag ( True/False ) */
(PID.TID 0000.0001)                   F
(PID.TID 0000.0001)     ;
(PID.TID 0000.0001) usingCurvilinearGrid = /* Curvilinear coordinates flag ( True/False ) */
(PID.TID 0000.0001)                   T
(PID.TID 0000.0001)     ;
(PID.TID 0000.0001) selectSigmaCoord = /* Hybrid-Sigma Vert. Coordinate option */
(PID.TID 0000.0001)                       0
(PID.TID 0000.0001)     ;
(PID.TID 0000.0001) Ro_SeaLevel = /* r(1) ( units of r == Pa ) */
(PID.TID 0000.0001)                 1.000000000000000E+05
(PID.TID 0000.0001)     ;
(PID.TID 0000.0001) rSigmaBnd = /* r/sigma transition ( units of r == Pa ) */
(PID.TID 0000.0001)                 1.234567000000000E+05
(PID.TID 0000.0001)     ;
(PID.TID 0000.0001) rkSign =   /* index orientation relative to vertical coordinate */
(PID.TID 0000.0001)                -1.000000000000000E+00
(PID.TID 0000.0001)     ;
(PID.TID 0000.0001) gravitySign = /* gravity orientation relative to vertical coordinate */
(PID.TID 0000.0001)                 1.000000000000000E+00
(PID.TID 0000.0001)     ;
(PID.TID 0000.0001) mass2rUnit = /* convert mass per unit area [kg/m2] to r-units [Pa] */
(PID.TID 0000.0001)                 9.800000000000001E+00
(PID.TID 0000.0001)     ;
(PID.TID 0000.0001) rUnit2mass = /* convert r-units [Pa] to mass per unit area [kg/m2] */
(PID.TID 0000.0001)                 1.020408163265306E-01
(PID.TID 0000.0001)     ;
(PID.TID 0000.0001) drC =   /* C spacing ( units of r ) */
(PID.TID 0000.0001)                 7.500000000000000E+02,      /* K =  1 */
(PID.TID 0000.0001)                 1.811000000000000E+03,      /* K =  2 */
(PID.TID 0000.0001)                 2.561000000000000E+03,      /* K =  3 */
(PID.TID 0000.0001)                 3.621000000000000E+03,      /* K =  4 */
(PID.TID 0000.0001)                 5.121000000000000E+03,      /* K =  5 */
(PID.TID 0000.0001)                 6.900000000000000E+03,      /* K =  6 */
(PID.TID 0000.0001)                 8.450000000000000E+03,      /* K =  7 */
(PID.TID 0000.0001)                 9.250000000000000E+03,      /* K =  8 */
(PID.TID 0000.0001)                 9.340000000000000E+03,      /* K =  9 */
(PID.TID 0000.0001)                 8.840000000000000E+03,      /* K = 10 */
(PID.TID 0000.0001)                 7.690000000000000E+03,      /* K = 11 */
(PID.TID 0000.0001)                 6.390000000000000E+03,      /* K = 12 */
(PID.TID 0000.0001)                 5.310000000000000E+03,      /* K = 13 */
(PID.TID 0000.0001)                 4.412000000000000E+03,      /* K = 14 */
(PID.TID 0000.0001)                 3.666000000000000E+03,      /* K = 15 */
(PID.TID 0000.0001)                 3.047000000000000E+03,      /* K = 16 */
(PID.TID 0000.0001)                 2.532000000000000E+03,      /* K = 17 */
(PID.TID 0000.0001)                 2.104000000000000E+03,      /* K = 18 */
(PID.TID 0000.0001)                 1.748000000000000E+03,      /* K = 19 */
(PID.TID 0000.0001)                 1.452000000000000E+03,      /* K = 20 */
(PID.TID 0000.0001)                 1.207000000000000E+03,      /* K = 21 */
(PID.TID 0000.0001)                 1.003000000000000E+03,      /* K = 22 */
(PID.TID 0000.0001)                 8.330000000000000E+02,      /* K = 23 */
(PID.TID 0000.0001)                 6.920000000000000E+02,      /* K = 24 */
(PID.TID 0000.0001)                 5.750000000000000E+02,      /* K = 25 */
(PID.TID 0000.0001)                 4.780000000000000E+02       /* K = 26 */
(PID.TID 0000.0001)     ;
(PID.TID 0000.0001) drF =   /* W spacing ( units of r ) */
(PID.TID 0000.0001)                 1.500000000000000E+03,      /* K =  1 */
(PID.TID 0000.0001)                 2.122000000000000E+03,      /* K =  2 */
(PID.TID 0000.0001)                 3.000000000000000E+03,      /* K =  3 */
(PID.TID 0000.0001)                 4.242000000000000E+03,      /* K =  4 */
(PID.TID 0000.0001)                 6.000000000000000E+03,      /* K =  5 */
(PID.TID 0000.0001)                 7.800000000000000E+03,      /* K =  6 */
(PID.TID 0000.0001)                 9.100000000000000E+03,      /* K =  7 */
(PID.TID 0000.0001)                 9.400000000000000E+03,      /* K =  8 */
(PID.TID 0000.0001)                 9.280000000000000E+03,      /* K =  9 */
(PID.TID 0000.0001)                 8.400000000000000E+03,      /* K = 10 */
(PID.TID 0000.0001)                 6.980000000000000E+03,      /* K = 11 */
(PID.TID 0000.0001)                 5.800000000000000E+03,      /* K = 12 */
(PID.TID 0000.0001)                 4.820000000000000E+03,      /* K = 13 */
(PID.TID 0000.0001)                 4.004000000000000E+03,      /* K = 14 */
(PID.TID 0000.0001)                 3.328000000000000E+03,      /* K = 15 */
(PID.TID 0000.0001)                 2.766000000000000E+03,      /* K = 16 */
(PID.TID 0000.0001)                 2.298000000000000E+03,      /* K = 17 */
(PID.TID 0000.0001)                 1.910000000000000E+03,      /* K = 18 */
(PID.TID 0000.0001)                 1.586000000000000E+03,      /* K = 19 */
(PID.TID 0000.0001)                 1.318000000000000E+03,      /* K = 20 */
(PID.TID 0000.0001)                 1.096000000000000E+03,      /* K = 21 */
(PID.TID 0000.0001)                 9.100000000000000E+02,      /* K = 22 */
(PID.TID 0000.0001)                 7.560000000000000E+02,      /* K = 23 */
(PID.TID 0000.0001)                 6.280000000000000E+02,      /* K = 24 */
(PID.TID 0000.0001)                 5.220000000000000E+02,      /* K = 25 */
(PID.TID 0000.0001)                 4.340000000000000E+02       /* K = 26 */
(PID.TID 0000.0001)     ;
(PID.TID 0000.0001) radius_fromHorizGrid = /* sphere Radius of input horiz. grid */
(PID.TID 0000.0001)                 6.370000000000000E+06
(PID.TID 0000.0001)     ;
(PID.TID 0000.0001) rSphere =  /* Radius ( ignored - cartesian, m - spherical ) */
(PID.TID 0000.0001)                 6.370000000000000E+06
(PID.TID 0000.0001)     ;
(PID.TID 0000.0001) deepAtmosphere = /* Deep/Shallow Atmosphere flag (True/False) */
(PID.TID 0000.0001)                   F
(PID.TID 0000.0001)     ;
(PID.TID 0000.0001) xC =  /* xC(:,1,:,1) : P-point X coord ( deg. or m if cartesian) */
(PID.TID 0000.0001)                -4.439521994760536E+01,      /* I =  1 */
(PID.TID 0000.0001)                -4.295641272275883E+01,      /* I =  2 */
(PID.TID 0000.0001)                -4.122055553388957E+01,      /* I =  3 */
(PID.TID 0000.0001)      . . .
(PID.TID 0000.0001)                 8.070819219728060E+01,      /* I = 46 */
(PID.TID 0000.0001)                 8.439652466417766E+01,      /* I = 47 */
(PID.TID 0000.0001)                 8.812739148696656E+01,      /* I = 48 */
(PID.TID 0000.0001)                 9.187260851303344E+01,      /* I = 49 */
(PID.TID 0000.0001)                 9.560347533582234E+01,      /* I = 50 */
(PID.TID 0000.0001)                 9.929180780271940E+01,      /* I = 51 */
(PID.TID 0000.0001)      . . .
(PID.TID 0000.0001)                 1.321863035748696E+02,      /* I = 94 */
(PID.TID 0000.0001)                 1.337919453120370E+02,      /* I = 95 */
(PID.TID 0000.0001)                 1.350000000000000E+02,      /* I = 96 */
(PID.TID 0000.0001)                 1.356047800523947E+02,      /* I = 97 */
(PID.TID 0000.0001)                 1.358367907661329E+02,      /* I = 98 */
(PID.TID 0000.0001)                 1.359720382181193E+02,      /* I = 99 */
(PID.TID 0000.0001)      . . .
(PID.TID 0000.0001)                -1.336511021209287E+02,      /* I =142 */
(PID.TID 0000.0001)                -1.336469399409420E+02,      /* I =143 */
(PID.TID 0000.0001)                -1.336449032499283E+02,      /* I =144 */
(PID.TID 0000.0001)                -1.336449032499283E+02,      /* I =145 */
(PID.TID 0000.0001)                -1.336469399409420E+02,      /* I =146 */
(PID.TID 0000.0001)                -1.336511021209287E+02,      /* I =147 */
(PID.TID 0000.0001)      . . .
(PID.TID 0000.0001)                 1.378136964251304E+02,      /* I =190 */
(PID.TID 0000.0001)                 1.362080546879630E+02,      /* I =191 */
(PID.TID 0000.0001)                 1.350000000000000E+02       /* I =192 */
(PID.TID 0000.0001)     ;
(PID.TID 0000.0001) yC =  /* yC(1,:,1,:) : P-point Y coord ( deg. or m if cartesian) */
(PID.TID 0000.0001)                -3.497677942598243E+01,      /* J =  1 */
(PID.TID 0000.0001)                -3.374005967394886E+01,      /* J =  2 */
(PID.TID 0000.0001)                -3.220655175667454E+01,      /* J =  3 */
(PID.TID 0000.0001)                -3.045756348838641E+01,      /* J =  4 */
(PID.TID 0000.0001)                -2.853728129852918E+01,      /* J =  5 */
(PID.TID 0000.0001)                -2.647426640173173E+01,      /* J =  6 */
(PID.TID 0000.0001)                -2.428936657094636E+01,      /* J =  7 */
(PID.TID 0000.0001)                -2.199915808312262E+01,      /* J =  8 */
(PID.TID 0000.0001)                -1.961768597440146E+01,      /* J =  9 */
(PID.TID 0000.0001)                -1.715743888281371E+01,      /* J = 10 */
(PID.TID 0000.0001)                -1.462993396899330E+01,      /* J = 11 */
(PID.TID 0000.0001)                -1.204608340464756E+01,      /* J = 12 */
(PID.TID 0000.0001)                -9.416429130284818E+00,      /* J = 13 */
(PID.TID 0000.0001)                -6.751293662992216E+00,      /* J = 14 */
(PID.TID 0000.0001)                -4.060875511835959E+00,      /* J = 15 */
(PID.TID 0000.0001)                -1.355307764409121E+00,      /* J = 16 */
(PID.TID 0000.0001)                 1.355307764409121E+00,      /* J = 17 */
(PID.TID 0000.0001)                 4.060875511835959E+00,      /* J = 18 */
(PID.TID 0000.0001)                 6.751293662992216E+00,      /* J = 19 */
(PID.TID 0000.0001)                 9.416429130284818E+00,      /* J = 20 */
(PID.TID 0000.0001)                 1.204608340464756E+01,      /* J = 21 */
(PID.TID 0000.0001)                 1.462993396899330E+01,      /* J = 22 */
(PID.TID 0000.0001)                 1.715743888281371E+01,      /* J = 23 */
(PID.TID 0000.0001)                 1.961768597440146E+01,      /* J = 24 */
(PID.TID 0000.0001)                 2.199915808312262E+01,      /* J = 25 */
(PID.TID 0000.0001)                 2.428936657094636E+01,      /* J = 26 */
(PID.TID 0000.0001)                 2.647426640173173E+01,      /* J = 27 */
(PID.TID 0000.0001)                 2.853728129852918E+01,      /* J = 28 */
(PID.TID 0000.0001)                 3.045756348838641E+01,      /* J = 29 */
(PID.TID 0000.0001)                 3.220655175667454E+01,      /* J = 30 */
(PID.TID 0000.0001)                 3.374005967394886E+01,      /* J = 31 */
(PID.TID 0000.0001)                 3.497677942598243E+01       /* J = 32 */
(PID.TID 0000.0001)     ;
(PID.TID 0000.0001) rcoord = /* P-point R coordinate (  units of r ) */
(PID.TID 0000.0001)                 9.925000000000000E+04,      /* K =  1 */
(PID.TID 0000.0001)                 9.743900000000000E+04,      /* K =  2 */
(PID.TID 0000.0001)                 9.487800000000000E+04,      /* K =  3 */
(PID.TID 0000.0001)                 9.125700000000000E+04,      /* K =  4 */
(PID.TID 0000.0001)                 8.613600000000000E+04,      /* K =  5 */
(PID.TID 0000.0001)                 7.923600000000000E+04,      /* K =  6 */
(PID.TID 0000.0001)                 7.078600000000000E+04,      /* K =  7 */
(PID.TID 0000.0001)                 6.153600000000000E+04,      /* K =  8 */
(PID.TID 0000.0001)                 5.219600000000000E+04,      /* K =  9 */
(PID.TID 0000.0001)                 4.335600000000000E+04,      /* K = 10 */
(PID.TID 0000.0001)                 3.566600000000000E+04,      /* K = 11 */
(PID.TID 0000.0001)                 2.927600000000000E+04,      /* K = 12 */
(PID.TID 0000.0001)                 2.396600000000000E+04,      /* K = 13 */
(PID.TID 0000.0001)                 1.955400000000000E+04,      /* K = 14 */
(PID.TID 0000.0001)                 1.588800000000000E+04,      /* K = 15 */
(PID.TID 0000.0001)                 1.284100000000000E+04,      /* K = 16 */
(PID.TID 0000.0001)                 1.030900000000000E+04,      /* K = 17 */
(PID.TID 0000.0001)                 8.205000000000000E+03,      /* K = 18 */
(PID.TID 0000.0001)                 6.457000000000000E+03,      /* K = 19 */
(PID.TID 0000.0001)                 5.005000000000000E+03,      /* K = 20 */
(PID.TID 0000.0001)                 3.798000000000000E+03,      /* K = 21 */
(PID.TID 0000.0001)                 2.795000000000000E+03,      /* K = 22 */
(PID.TID 0000.0001)                 1.962000000000000E+03,      /* K = 23 */
(PID.TID 0000.0001)                 1.270000000000000E+03,      /* K = 24 */
(PID.TID 0000.0001)                 6.950000000000000E+02,      /* K = 25 */
(PID.TID 0000.0001)                 2.170000000000000E+02       /* K = 26 */
(PID.TID 0000.0001)     ;
(PID.TID 0000.0001) rF =   /* W-Interf. R coordinate (  units of r ) */
(PID.TID 0000.0001)                 1.000000000000000E+05,      /* K =  1 */
(PID.TID 0000.0001)                 9.850000000000000E+04,      /* K =  2 */
(PID.TID 0000.0001)                 9.637800000000000E+04,      /* K =  3 */
(PID.TID 0000.0001)                 9.337800000000000E+04,      /* K =  4 */
(PID.TID 0000.0001)                 8.913600000000000E+04,      /* K =  5 */
(PID.TID 0000.0001)                 8.313600000000000E+04,      /* K =  6 */
(PID.TID 0000.0001)                 7.533600000000000E+04,      /* K =  7 */
(PID.TID 0000.0001)                 6.623600000000000E+04,      /* K =  8 */
(PID.TID 0000.0001)                 5.683600000000000E+04,      /* K =  9 */
(PID.TID 0000.0001)                 4.755600000000000E+04,      /* K = 10 */
(PID.TID 0000.0001)                 3.915600000000000E+04,      /* K = 11 */
(PID.TID 0000.0001)                 3.217600000000000E+04,      /* K = 12 */
(PID.TID 0000.0001)                 2.637600000000000E+04,      /* K = 13 */
(PID.TID 0000.0001)                 2.155600000000000E+04,      /* K = 14 */
(PID.TID 0000.0001)                 1.755200000000000E+04,      /* K = 15 */
(PID.TID 0000.0001)                 1.422400000000000E+04,      /* K = 16 */
(PID.TID 0000.0001)                 1.145800000000000E+04,      /* K = 17 */
(PID.TID 0000.0001)                 9.160000000000000E+03,      /* K = 18 */
(PID.TID 0000.0001)                 7.250000000000000E+03,      /* K = 19 */
(PID.TID 0000.0001)                 5.664000000000000E+03,      /* K = 20 */
(PID.TID 0000.0001)                 4.346000000000000E+03,      /* K = 21 */
(PID.TID 0000.0001)                 3.250000000000000E+03,      /* K = 22 */
(PID.TID 0000.0001)                 2.340000000000000E+03,      /* K = 23 */
(PID.TID 0000.0001)                 1.584000000000000E+03,      /* K = 24 */
(PID.TID 0000.0001)                 9.560000000000000E+02,      /* K = 25 */
(PID.TID 0000.0001)                 4.340000000000000E+02,      /* K = 26 */
(PID.TID 0000.0001)                 0.000000000000000E+00       /* K = 27 */
(PID.TID 0000.0001)     ;
(PID.TID 0000.0001) deepFacC = /* deep-model grid factor @ cell-Center (-) */
(PID.TID 0000.0001)    26 @  1.000000000000000E+00              /* K =  1: 26 */
(PID.TID 0000.0001)     ;
(PID.TID 0000.0001) deepFacF = /* deep-model grid factor @ W-Interface (-) */
(PID.TID 0000.0001)    27 @  1.000000000000000E+00              /* K =  1: 27 */
(PID.TID 0000.0001)     ;
(PID.TID 0000.0001) rVel2wUnit = /* convert units: rVel -> wSpeed (=1 if z-coord)*/
(PID.TID 0000.0001)                 8.643418775510203E-02,      /* K =  1 */
(PID.TID 0000.0001)                 8.738714281594749E-02,      /* K =  2 */
(PID.TID 0000.0001)                 8.880228539413697E-02,      /* K =  3 */
(PID.TID 0000.0001)                 9.089242929019774E-02,      /* K =  4 */
(PID.TID 0000.0001)                 9.405693947589525E-02,      /* K =  5 */
(PID.TID 0000.0001)                 9.902423118195600E-02,      /* K =  6 */
(PID.TID 0000.0001)                 1.064768002018922E-01,      /* K =  7 */
(PID.TID 0000.0001)                 1.170463961122242E-01,      /* K =  8 */
(PID.TID 0000.0001)                 1.310066026003325E-01,      /* K =  9 */
(PID.TID 0000.0001)                 1.493938920168942E-01,      /* K = 10 */
(PID.TID 0000.0001)                 1.725289602831169E-01,      /* K = 11 */
(PID.TID 0000.0001)                 2.002474459407474E-01,      /* K = 12 */
(PID.TID 0000.0001)                 2.343614310665001E-01,      /* K = 13 */
(PID.TID 0000.0001)                 2.776669889631084E-01,      /* K = 14 */
(PID.TID 0000.0001)                 3.350138715309565E-01,      /* K = 15 */
(PID.TID 0000.0001)                 4.115302688812186E-01,      /* K = 16 */
(PID.TID 0000.0001)                 5.108941627115936E-01,      /* K = 17 */
(PID.TID 0000.0001)                 6.391247399573892E-01,      /* K = 18 */
(PID.TID 0000.0001)                 8.075182125562436E-01,      /* K = 19 */
(PID.TID 0000.0001)                 1.033823213211920E+00,      /* K = 20 */
(PID.TID 0000.0001)                 1.347773276112891E+00,      /* K = 21 */
(PID.TID 0000.0001)                 1.802919824777024E+00,      /* K = 22 */
(PID.TID 0000.0001)                 2.505981061091403E+00,      /* K = 23 */
(PID.TID 0000.0001)                 3.708894241534945E+00,      /* K = 24 */
(PID.TID 0000.0001)                 6.181002019845741E+00,      /* K = 25 */
(PID.TID 0000.0001)                 1.412649152982495E+01,      /* K = 26 */
(PID.TID 0000.0001)                 1.000000000000000E+00       /* K = 27 */
(PID.TID 0000.0001)     ;
(PID.TID 0000.0001) wUnit2rVel = /* convert units: wSpeed -> rVel (=1 if z-coord)*/
(PID.TID 0000.0001)                 1.156949612152712E+01,      /* K =  1 */
(PID.TID 0000.0001)                 1.144333099556961E+01,      /* K =  2 */
(PID.TID 0000.0001)                 1.126097144416537E+01,      /* K =  3 */
(PID.TID 0000.0001)                 1.100201642545211E+01,      /* K =  4 */
(PID.TID 0000.0001)                 1.063185774034545E+01,      /* K =  5 */
(PID.TID 0000.0001)                 1.009853838867489E+01,      /* K =  6 */
(PID.TID 0000.0001)                 9.391717238909184E+00,      /* K =  7 */
(PID.TID 0000.0001)                 8.543620591625897E+00,      /* K =  8 */
(PID.TID 0000.0001)                 7.633203061152140E+00,      /* K =  9 */
(PID.TID 0000.0001)                 6.693714090311771E+00,      /* K = 10 */
(PID.TID 0000.0001)                 5.796128362212453E+00,      /* K = 11 */
(PID.TID 0000.0001)                 4.993821495710346E+00,      /* K = 12 */
(PID.TID 0000.0001)                 4.266913695864273E+00,      /* K = 13 */
(PID.TID 0000.0001)                 3.601436395929884E+00,      /* K = 14 */
(PID.TID 0000.0001)                 2.984951027341554E+00,      /* K = 15 */
(PID.TID 0000.0001)                 2.429954916119751E+00,      /* K = 16 */
(PID.TID 0000.0001)                 1.957352565338495E+00,      /* K = 17 */
(PID.TID 0000.0001)                 1.564639791704309E+00,      /* K = 18 */
(PID.TID 0000.0001)                 1.238362162550421E+00,      /* K = 19 */
(PID.TID 0000.0001)                 9.672833683944502E-01,      /* K = 20 */
(PID.TID 0000.0001)                 7.419645557033876E-01,      /* K = 21 */
(PID.TID 0000.0001)                 5.546558345286792E-01,      /* K = 22 */
(PID.TID 0000.0001)                 3.990453142389196E-01,      /* K = 23 */
(PID.TID 0000.0001)                 2.696221393431119E-01,      /* K = 24 */
(PID.TID 0000.0001)                 1.617860658820747E-01,      /* K = 25 */
(PID.TID 0000.0001)                 7.078898521184275E-02,      /* K = 26 */
(PID.TID 0000.0001)                 1.000000000000000E+00       /* K = 27 */
(PID.TID 0000.0001)     ;
(PID.TID 0000.0001) dBdrRef = /* Vertical grad. of reference buoyancy [(m/s/r)^2] */
(PID.TID 0000.0001)                 0.000000000000000E+00,      /* K =  1 */
(PID.TID 0000.0001)                 1.604020822972663E-07,      /* K =  2 */
(PID.TID 0000.0001)                 2.305314669656972E-07,      /* K =  3 */
(PID.TID 0000.0001)                 1.669031556286163E-07,      /* K =  4 */
(PID.TID 0000.0001)                 2.443043384715506E-07,      /* K =  5 */
(PID.TID 0000.0001)                 2.860066576999341E-07,      /* K =  6 */
(PID.TID 0000.0001)                 2.921875837384485E-07,      /* K =  7 */
(PID.TID 0000.0001)                 3.755074484194814E-07,      /* K =  8 */
(PID.TID 0000.0001)                 5.066322497832424E-07,      /* K =  9 */
(PID.TID 0000.0001)                 7.166887707647536E-07,      /* K = 10 */
(PID.TID 0000.0001)                 1.306741577704211E-06,      /* K = 11 */
(PID.TID 0000.0001)                 3.518055907999274E-06,      /* K = 12 */
(PID.TID 0000.0001)                 8.225060034419378E-06,      /* K = 13 */
(PID.TID 0000.0001)                 1.937860091746120E-05,      /* K = 14 */
(PID.TID 0000.0001)                 4.456361509018920E-05,      /* K = 15 */
(PID.TID 0000.0001)                 8.004656631735151E-05,      /* K = 16 */
(PID.TID 0000.0001)                 1.235417107379588E-04,      /* K = 17 */
(PID.TID 0000.0001)                 1.931534961382523E-04,      /* K = 18 */
(PID.TID 0000.0001)                 3.077255424266486E-04,      /* K = 19 */
(PID.TID 0000.0001)                 5.060735888621455E-04,      /* K = 20 */
(PID.TID 0000.0001)                 8.577447781720473E-04,      /* K = 21 */
(PID.TID 0000.0001)                 1.533315559624654E-03,      /* K = 22 */
(PID.TID 0000.0001)                 2.960876155175189E-03,      /* K = 23 */
(PID.TID 0000.0001)                 6.490610232038748E-03,      /* K = 24 */
(PID.TID 0000.0001)                 1.807701670627409E-02,      /* K = 25 */
(PID.TID 0000.0001)                 9.817506062475811E-02       /* K = 26 */
(PID.TID 0000.0001)     ;
(PID.TID 0000.0001) rotateGrid = /* use rotated grid ( True/False ) */
(PID.TID 0000.0001)                   F
(PID.TID 0000.0001)     ;
(PID.TID 0000.0001) phiEuler = /* Euler angle, rotation about original z-coordinate [rad] */
(PID.TID 0000.0001)                 0.000000000000000E+00
(PID.TID 0000.0001)     ;
(PID.TID 0000.0001) thetaEuler = /* Euler angle, rotation about new x-coordinate [rad] */
(PID.TID 0000.0001)                 0.000000000000000E+00
(PID.TID 0000.0001)     ;
(PID.TID 0000.0001) psiEuler = /* Euler angle, rotation about new z-coordinate [rad] */
(PID.TID 0000.0001)                 0.000000000000000E+00
(PID.TID 0000.0001)     ;
(PID.TID 0000.0001) dxF =  /* dxF(:,1,:,1) ( units: m ) */
(PID.TID 0000.0001)                 1.202082051331828E+05,      /* I =  1 */
(PID.TID 0000.0001)                 1.563594089971120E+05,      /* I =  2 */
(PID.TID 0000.0001)                 1.835530058121492E+05,      /* I =  3 */
(PID.TID 0000.0001)      . . .
(PID.TID 0000.0001)                 2.978501920522794E+05,      /* I = 46 */
(PID.TID 0000.0001)                 3.000967749619962E+05,      /* I = 47 */
(PID.TID 0000.0001)                 3.012190981969055E+05,      /* I = 48 */
(PID.TID 0000.0001)                 3.012190981969055E+05,      /* I = 49 */
(PID.TID 0000.0001)                 3.000967749619962E+05,      /* I = 50 */
(PID.TID 0000.0001)                 2.978501920522794E+05,      /* I = 51 */
(PID.TID 0000.0001)      . . .
(PID.TID 0000.0001)                 1.835530058121492E+05,      /* I = 94 */
(PID.TID 0000.0001)                 1.563594089971120E+05,      /* I = 95 */
(PID.TID 0000.0001)                 1.202082051331828E+05,      /* I = 96 */
(PID.TID 0000.0001)                 1.202082051331828E+05,      /* I = 97 */
(PID.TID 0000.0001)                 1.563594089971120E+05,      /* I = 98 */
(PID.TID 0000.0001)                 1.835530058121492E+05,      /* I = 99 */
(PID.TID 0000.0001)      . . .
(PID.TID 0000.0001)                 2.978501920522794E+05,      /* I =142 */
(PID.TID 0000.0001)                 3.000967749619962E+05,      /* I =143 */
(PID.TID 0000.0001)                 3.012190981969055E+05,      /* I =144 */
(PID.TID 0000.0001)                 3.012190981969055E+05,      /* I =145 */
(PID.TID 0000.0001)                 3.000967749619962E+05,      /* I =146 */
(PID.TID 0000.0001)                 2.978501920522794E+05,      /* I =147 */
(PID.TID 0000.0001)      . . .
(PID.TID 0000.0001)                 1.835530058121492E+05,      /* I =190 */
(PID.TID 0000.0001)                 1.563594089971120E+05,      /* I =191 */
(PID.TID 0000.0001)                 1.202082051331828E+05       /* I =192 */
(PID.TID 0000.0001)     ;
(PID.TID 0000.0001) dxF =  /* dxF(1,:,1,:) ( units: m ) */
(PID.TID 0000.0001)                 1.202082051331828E+05,      /* J =  1 */
(PID.TID 0000.0001)                 1.572908084538706E+05,      /* J =  2 */
(PID.TID 0000.0001)                 1.840412227747703E+05,      /* J =  3 */
(PID.TID 0000.0001)                 2.048868197919576E+05,      /* J =  4 */
(PID.TID 0000.0001)                 2.220405216043041E+05,      /* J =  5 */
(PID.TID 0000.0001)                 2.365892017348392E+05,      /* J =  6 */
(PID.TID 0000.0001)                 2.491250781852558E+05,      /* J =  7 */
(PID.TID 0000.0001)                 2.599949918261881E+05,      /* J =  8 */
(PID.TID 0000.0001)                 2.694110134598581E+05,      /* J =  9 */
(PID.TID 0000.0001)                 2.775055554645015E+05,      /* J = 10 */
(PID.TID 0000.0001)                 2.843615645344775E+05,      /* J = 11 */
(PID.TID 0000.0001)                 2.900303768613599E+05,      /* J = 12 */
(PID.TID 0000.0001)                 2.945429307892709E+05,      /* J = 13 */
(PID.TID 0000.0001)                 2.979171143158405E+05,      /* J = 14 */
(PID.TID 0000.0001)                 3.001626787528886E+05,      /* J = 15 */
(PID.TID 0000.0001)     2 @  3.012844832048790E+05,             /* J = 16: 17 */
(PID.TID 0000.0001)                 3.001626787528886E+05,      /* J = 18 */
(PID.TID 0000.0001)                 2.979171143158405E+05,      /* J = 19 */
(PID.TID 0000.0001)                 2.945429307892709E+05,      /* J = 20 */
(PID.TID 0000.0001)                 2.900303768613599E+05,      /* J = 21 */
(PID.TID 0000.0001)                 2.843615645344775E+05,      /* J = 22 */
(PID.TID 0000.0001)                 2.775055554645015E+05,      /* J = 23 */
(PID.TID 0000.0001)                 2.694110134598581E+05,      /* J = 24 */
(PID.TID 0000.0001)                 2.599949918261881E+05,      /* J = 25 */
(PID.TID 0000.0001)                 2.491250781852558E+05,      /* J = 26 */
(PID.TID 0000.0001)                 2.365892017348392E+05,      /* J = 27 */
(PID.TID 0000.0001)                 2.220405216043041E+05,      /* J = 28 */
(PID.TID 0000.0001)                 2.048868197919576E+05,      /* J = 29 */
(PID.TID 0000.0001)                 1.840412227747703E+05,      /* J = 30 */
(PID.TID 0000.0001)                 1.572908084538706E+05,      /* J = 31 */
(PID.TID 0000.0001)                 1.202082051331828E+05       /* J = 32 */
(PID.TID 0000.0001)     ;
(PID.TID 0000.0001) dyF =  /* dyF(:,1,:,1) ( units: m ) */
(PID.TID 0000.0001)                 1.202082051331828E+05,      /* I =  1 */
(PID.TID 0000.0001)                 1.572908084538706E+05,      /* I =  2 */
(PID.TID 0000.0001)                 1.840412227747703E+05,      /* I =  3 */
(PID.TID 0000.0001)      . . .
(PID.TID 0000.0001)                 2.979171143158405E+05,      /* I = 46 */
(PID.TID 0000.0001)                 3.001626787528886E+05,      /* I = 47 */
(PID.TID 0000.0001)                 3.012844832048790E+05,      /* I = 48 */
(PID.TID 0000.0001)                 3.012844832048790E+05,      /* I = 49 */
(PID.TID 0000.0001)                 3.001626787528886E+05,      /* I = 50 */
(PID.TID 0000.0001)                 2.979171143158405E+05,      /* I = 51 */
(PID.TID 0000.0001)      . . .
(PID.TID 0000.0001)                 1.840412227747703E+05,      /* I = 94 */
(PID.TID 0000.0001)                 1.572908084538706E+05,      /* I = 95 */
(PID.TID 0000.0001)                 1.202082051331828E+05,      /* I = 96 */
(PID.TID 0000.0001)                 1.202082051331828E+05,      /* I = 97 */
(PID.TID 0000.0001)                 1.572908084538706E+05,      /* I = 98 */
(PID.TID 0000.0001)                 1.840412227747703E+05,      /* I = 99 */
(PID.TID 0000.0001)      . . .
(PID.TID 0000.0001)                 2.979171143158405E+05,      /* I =142 */
(PID.TID 0000.0001)                 3.001626787528886E+05,      /* I =143 */
(PID.TID 0000.0001)                 3.012844832048790E+05,      /* I =144 */
(PID.TID 0000.0001)                 3.012844832048790E+05,      /* I =145 */
(PID.TID 0000.0001)                 3.001626787528886E+05,      /* I =146 */
(PID.TID 0000.0001)                 2.979171143158405E+05,      /* I =147 */
(PID.TID 0000.0001)      . . .
(PID.TID 0000.0001)                 1.840412227747703E+05,      /* I =190 */
(PID.TID 0000.0001)                 1.572908084538706E+05,      /* I =191 */
(PID.TID 0000.0001)                 1.202082051331828E+05       /* I =192 */
(PID.TID 0000.0001)     ;
(PID.TID 0000.0001) dyF =  /* dyF(1,:,1,:) ( units: m ) */
(PID.TID 0000.0001)                 1.202082051331828E+05,      /* J =  1 */
(PID.TID 0000.0001)                 1.563594089971120E+05,      /* J =  2 */
(PID.TID 0000.0001)                 1.835530058121492E+05,      /* J =  3 */
(PID.TID 0000.0001)                 2.045883481718707E+05,      /* J =  4 */
(PID.TID 0000.0001)                 2.218350349844185E+05,      /* J =  5 */
(PID.TID 0000.0001)                 2.364352994647058E+05,      /* J =  6 */
(PID.TID 0000.0001)                 2.490022710862746E+05,      /* J =  7 */
(PID.TID 0000.0001)                 2.598919724358304E+05,      /* J =  8 */
(PID.TID 0000.0001)                 2.693210245495156E+05,      /* J =  9 */
(PID.TID 0000.0001)                 2.774243179696503E+05,      /* J = 10 */
(PID.TID 0000.0001)                 2.842862532064524E+05,      /* J = 11 */
(PID.TID 0000.0001)                 2.899590699694043E+05,      /* J = 12 */
(PID.TID 0000.0001)                 2.944742915095688E+05,      /* J = 13 */
(PID.TID 0000.0001)                 2.978501920522794E+05,      /* J = 14 */
(PID.TID 0000.0001)                 3.000967749619962E+05,      /* J = 15 */
(PID.TID 0000.0001)     2 @  3.012190981969055E+05,             /* J = 16: 17 */
(PID.TID 0000.0001)                 3.000967749619962E+05,      /* J = 18 */
(PID.TID 0000.0001)                 2.978501920522794E+05,      /* J = 19 */
(PID.TID 0000.0001)                 2.944742915095688E+05,      /* J = 20 */
(PID.TID 0000.0001)                 2.899590699694043E+05,      /* J = 21 */
(PID.TID 0000.0001)                 2.842862532064524E+05,      /* J = 22 */
(PID.TID 0000.0001)                 2.774243179696503E+05,      /* J = 23 */
(PID.TID 0000.0001)                 2.693210245495156E+05,      /* J = 24 */
(PID.TID 0000.0001)                 2.598919724358304E+05,      /* J = 25 */
(PID.TID 0000.0001)                 2.490022710862746E+05,      /* J = 26 */
(PID.TID 0000.0001)                 2.364352994647058E+05,      /* J = 27 */
(PID.TID 0000.0001)                 2.218350349844185E+05,      /* J = 28 */
(PID.TID 0000.0001)                 2.045883481718707E+05,      /* J = 29 */
(PID.TID 0000.0001)                 1.835530058121492E+05,      /* J = 30 */
(PID.TID 0000.0001)                 1.563594089971120E+05,      /* J = 31 */
(PID.TID 0000.0001)                 1.202082051331828E+05       /* J = 32 */
(PID.TID 0000.0001)     ;
(PID.TID 0000.0001) dxG =  /* dxG(:,1,:,1) ( units: m ) */
(PID.TID 0000.0001)                 1.009837800879055E+05,      /* I =  1 */
(PID.TID 0000.0001)                 1.534505834330338E+05,      /* I =  2 */
(PID.TID 0000.0001)                 1.823321598773926E+05,      /* I =  3 */
(PID.TID 0000.0001)      . . .
(PID.TID 0000.0001)                 2.977867909042096E+05,      /* I = 46 */
(PID.TID 0000.0001)                 3.000380090330854E+05,      /* I = 47 */
(PID.TID 0000.0001)                 3.011625828699101E+05,      /* I = 48 */
(PID.TID 0000.0001)                 3.011625828699101E+05,      /* I = 49 */
(PID.TID 0000.0001)                 3.000380090330854E+05,      /* I = 50 */
(PID.TID 0000.0001)                 2.977867909042096E+05,      /* I = 51 */
(PID.TID 0000.0001)      . . .
(PID.TID 0000.0001)                 1.823321598773926E+05,      /* I = 94 */
(PID.TID 0000.0001)                 1.534505834330338E+05,      /* I = 95 */
(PID.TID 0000.0001)                 1.009837800879055E+05,      /* I = 96 */
(PID.TID 0000.0001)                 1.009837800879055E+05,      /* I = 97 */
(PID.TID 0000.0001)                 1.534505834330338E+05,      /* I = 98 */
(PID.TID 0000.0001)                 1.823321598773926E+05,      /* I = 99 */
(PID.TID 0000.0001)      . . .
(PID.TID 0000.0001)                 2.977867909042096E+05,      /* I =142 */
(PID.TID 0000.0001)                 3.000380090330854E+05,      /* I =143 */
(PID.TID 0000.0001)                 3.011625828699101E+05,      /* I =144 */
(PID.TID 0000.0001)                 3.011625828699101E+05,      /* I =145 */
(PID.TID 0000.0001)                 3.000380090330854E+05,      /* I =146 */
(PID.TID 0000.0001)                 2.977867909042096E+05,      /* I =147 */
(PID.TID 0000.0001)      . . .
(PID.TID 0000.0001)                 1.823321598773926E+05,      /* I =190 */
(PID.TID 0000.0001)                 1.534505834330338E+05,      /* I =191 */
(PID.TID 0000.0001)                 1.009837800879055E+05       /* I =192 */
(PID.TID 0000.0001)     ;
(PID.TID 0000.0001) dxG =  /* dxG(1,:,1,:) ( units: m ) */
(PID.TID 0000.0001)                 1.009837800879055E+05,      /* J =  1 */
(PID.TID 0000.0001)                 1.403701524205398E+05,      /* J =  2 */
(PID.TID 0000.0001)                 1.716197227386011E+05,      /* J =  3 */
(PID.TID 0000.0001)                 1.950254041626018E+05,      /* J =  4 */
(PID.TID 0000.0001)                 2.138410773065497E+05,      /* J =  5 */
(PID.TID 0000.0001)                 2.295958105911512E+05,      /* J =  6 */
(PID.TID 0000.0001)                 2.430829951739083E+05,      /* J =  7 */
(PID.TID 0000.0001)                 2.547526806712889E+05,      /* J =  8 */
(PID.TID 0000.0001)                 2.648750305193301E+05,      /* J =  9 */
(PID.TID 0000.0001)                 2.736173771018112E+05,      /* J = 10 */
(PID.TID 0000.0001)                 2.810845823202647E+05,      /* J = 11 */
(PID.TID 0000.0001)                 2.873420591008078E+05,      /* J = 12 */
(PID.TID 0000.0001)                 2.924298293668651E+05,      /* J = 13 */
(PID.TID 0000.0001)                 2.963715635865306E+05,      /* J = 14 */
(PID.TID 0000.0001)                 2.991805843171258E+05,      /* J = 15 */
(PID.TID 0000.0001)                 3.008638765647886E+05,      /* J = 16 */
(PID.TID 0000.0001)                 3.014246674484008E+05,      /* J = 17 */
(PID.TID 0000.0001)                 3.008638765647886E+05,      /* J = 18 */
(PID.TID 0000.0001)                 2.991805843171258E+05,      /* J = 19 */
(PID.TID 0000.0001)                 2.963715635865306E+05,      /* J = 20 */
(PID.TID 0000.0001)                 2.924298293668651E+05,      /* J = 21 */
(PID.TID 0000.0001)                 2.873420591008078E+05,      /* J = 22 */
(PID.TID 0000.0001)                 2.810845823202647E+05,      /* J = 23 */
(PID.TID 0000.0001)                 2.736173771018112E+05,      /* J = 24 */
(PID.TID 0000.0001)                 2.648750305193301E+05,      /* J = 25 */
(PID.TID 0000.0001)                 2.547526806712889E+05,      /* J = 26 */
(PID.TID 0000.0001)                 2.430829951739083E+05,      /* J = 27 */
(PID.TID 0000.0001)                 2.295958105911512E+05,      /* J = 28 */
(PID.TID 0000.0001)                 2.138410773065497E+05,      /* J = 29 */
(PID.TID 0000.0001)                 1.950254041626018E+05,      /* J = 30 */
(PID.TID 0000.0001)                 1.716197227386011E+05,      /* J = 31 */
(PID.TID 0000.0001)                 1.403701524205398E+05       /* J = 32 */
(PID.TID 0000.0001)     ;
(PID.TID 0000.0001) dyG =  /* dyG(:,1,:,1) ( units: m ) */
(PID.TID 0000.0001)                 1.009837800879055E+05,      /* I =  1 */
(PID.TID 0000.0001)                 1.403701524205398E+05,      /* I =  2 */
(PID.TID 0000.0001)                 1.716197227386011E+05,      /* I =  3 */
(PID.TID 0000.0001)      . . .
(PID.TID 0000.0001)                 2.963715635865306E+05,      /* I = 46 */
(PID.TID 0000.0001)                 2.991805843171258E+05,      /* I = 47 */
(PID.TID 0000.0001)                 3.008638765647886E+05,      /* I = 48 */
(PID.TID 0000.0001)                 3.014246674484008E+05,      /* I = 49 */
(PID.TID 0000.0001)                 3.008638765647886E+05,      /* I = 50 */
(PID.TID 0000.0001)                 2.991805843171258E+05,      /* I = 51 */
(PID.TID 0000.0001)      . . .
(PID.TID 0000.0001)                 1.950254041626018E+05,      /* I = 94 */
(PID.TID 0000.0001)                 1.716197227386011E+05,      /* I = 95 */
(PID.TID 0000.0001)                 1.403701524205398E+05,      /* I = 96 */
(PID.TID 0000.0001)                 1.009837800879055E+05,      /* I = 97 */
(PID.TID 0000.0001)                 1.403701524205398E+05,      /* I = 98 */
(PID.TID 0000.0001)                 1.716197227386011E+05,      /* I = 99 */
(PID.TID 0000.0001)      . . .
(PID.TID 0000.0001)                 2.963715635865306E+05,      /* I =142 */
(PID.TID 0000.0001)                 2.991805843171258E+05,      /* I =143 */
(PID.TID 0000.0001)                 3.008638765647886E+05,      /* I =144 */
(PID.TID 0000.0001)                 3.014246674484008E+05,      /* I =145 */
(PID.TID 0000.0001)                 3.008638765647886E+05,      /* I =146 */
(PID.TID 0000.0001)                 2.991805843171258E+05,      /* I =147 */
(PID.TID 0000.0001)      . . .
(PID.TID 0000.0001)                 1.950254041626018E+05,      /* I =190 */
(PID.TID 0000.0001)                 1.716197227386011E+05,      /* I =191 */
(PID.TID 0000.0001)                 1.403701524205398E+05       /* I =192 */
(PID.TID 0000.0001)     ;
(PID.TID 0000.0001) dyG =  /* dyG(1,:,1,:) ( units: m ) */
(PID.TID 0000.0001)                 1.009837800879055E+05,      /* J =  1 */
(PID.TID 0000.0001)                 1.534505834330338E+05,      /* J =  2 */
(PID.TID 0000.0001)                 1.823321598773926E+05,      /* J =  3 */
(PID.TID 0000.0001)                 2.038999045536999E+05,      /* J =  4 */
(PID.TID 0000.0001)                 2.213884732245467E+05,      /* J =  5 */
(PID.TID 0000.0001)                 2.361211699596122E+05,      /* J =  6 */
(PID.TID 0000.0001)                 2.487693460283865E+05,      /* J =  7 */
(PID.TID 0000.0001)                 2.597126963772147E+05,      /* J =  8 */
(PID.TID 0000.0001)                 2.691790288994575E+05,      /* J =  9 */
(PID.TID 0000.0001)                 2.773091043277394E+05,      /* J = 10 */
(PID.TID 0000.0001)                 2.841906470085516E+05,      /* J = 11 */
(PID.TID 0000.0001)                 2.898778860929753E+05,      /* J = 12 */
(PID.TID 0000.0001)                 2.944035815526416E+05,      /* J = 13 */
(PID.TID 0000.0001)                 2.977867909042096E+05,      /* J = 14 */
(PID.TID 0000.0001)                 3.000380090330854E+05,      /* J = 15 */
(PID.TID 0000.0001)     2 @  3.011625828699101E+05,             /* J = 16: 17 */
(PID.TID 0000.0001)                 3.000380090330854E+05,      /* J = 18 */
(PID.TID 0000.0001)                 2.977867909042096E+05,      /* J = 19 */
(PID.TID 0000.0001)                 2.944035815526416E+05,      /* J = 20 */
(PID.TID 0000.0001)                 2.898778860929753E+05,      /* J = 21 */
(PID.TID 0000.0001)                 2.841906470085516E+05,      /* J = 22 */
(PID.TID 0000.0001)                 2.773091043277394E+05,      /* J = 23 */
(PID.TID 0000.0001)                 2.691790288994575E+05,      /* J = 24 */
(PID.TID 0000.0001)                 2.597126963772147E+05,      /* J = 25 */
(PID.TID 0000.0001)                 2.487693460283865E+05,      /* J = 26 */
(PID.TID 0000.0001)                 2.361211699596122E+05,      /* J = 27 */
(PID.TID 0000.0001)                 2.213884732245467E+05,      /* J = 28 */
(PID.TID 0000.0001)                 2.038999045536999E+05,      /* J = 29 */
(PID.TID 0000.0001)                 1.823321598773926E+05,      /* J = 30 */
(PID.TID 0000.0001)                 1.534505834330338E+05,      /* J = 31 */
(PID.TID 0000.0001)                 1.009837800879055E+05       /* J = 32 */
(PID.TID 0000.0001)     ;
(PID.TID 0000.0001) dxC =  /* dxC(:,1,:,1) ( units: m ) */
(PID.TID 0000.0001)                 1.135373000692312E+05,      /* I =  1 */
(PID.TID 0000.0001)                 1.391343389937106E+05,      /* I =  2 */
(PID.TID 0000.0001)                 1.709574999026266E+05,      /* I =  3 */
(PID.TID 0000.0001)      . . .
(PID.TID 0000.0001)                 2.963038832565530E+05,      /* I = 46 */
(PID.TID 0000.0001)                 2.991142470004740E+05,      /* I = 47 */
(PID.TID 0000.0001)                 3.007982711627968E+05,      /* I = 48 */
(PID.TID 0000.0001)                 3.013593857228136E+05,      /* I = 49 */
(PID.TID 0000.0001)                 3.007982711627968E+05,      /* I = 50 */
(PID.TID 0000.0001)                 2.991142470004740E+05,      /* I = 51 */
(PID.TID 0000.0001)      . . .
(PID.TID 0000.0001)                 1.946503699269892E+05,      /* I = 94 */
(PID.TID 0000.0001)                 1.709574999026266E+05,      /* I = 95 */
(PID.TID 0000.0001)                 1.391343389937106E+05,      /* I = 96 */
(PID.TID 0000.0001)                 1.135373000692312E+05,      /* I = 97 */
(PID.TID 0000.0001)                 1.391343389937106E+05,      /* I = 98 */
(PID.TID 0000.0001)                 1.709574999026266E+05,      /* I = 99 */
(PID.TID 0000.0001)      . . .
(PID.TID 0000.0001)                 2.963038832565530E+05,      /* I =142 */
(PID.TID 0000.0001)                 2.991142470004740E+05,      /* I =143 */
(PID.TID 0000.0001)                 3.007982711627968E+05,      /* I =144 */
(PID.TID 0000.0001)                 3.013593857228136E+05,      /* I =145 */
(PID.TID 0000.0001)                 3.007982711627968E+05,      /* I =146 */
(PID.TID 0000.0001)                 2.991142470004740E+05,      /* I =147 */
(PID.TID 0000.0001)      . . .
(PID.TID 0000.0001)                 1.946503699269892E+05,      /* I =190 */
(PID.TID 0000.0001)                 1.709574999026266E+05,      /* I =191 */
(PID.TID 0000.0001)                 1.391343389937106E+05       /* I =192 */
(PID.TID 0000.0001)     ;
(PID.TID 0000.0001) dxC =  /* dxC(1,:,1,:) ( units: m ) */
(PID.TID 0000.0001)                 1.135373000692312E+05,      /* J =  1 */
(PID.TID 0000.0001)                 1.549545757850771E+05,      /* J =  2 */
(PID.TID 0000.0001)                 1.829777599966776E+05,      /* J =  3 */
(PID.TID 0000.0001)                 2.042717761866506E+05,      /* J =  4 */
(PID.TID 0000.0001)                 2.216367828252819E+05,      /* J =  5 */
(PID.TID 0000.0001)                 2.363029564123586E+05,      /* J =  6 */
(PID.TID 0000.0001)                 2.489113743322025E+05,      /* J =  7 */
(PID.TID 0000.0001)                 2.598293319150326E+05,      /* J =  8 */
(PID.TID 0000.0001)                 2.692787333338535E+05,      /* J =  9 */
(PID.TID 0000.0001)                 2.773972106720365E+05,      /* J = 10 */
(PID.TID 0000.0001)                 2.842706922224557E+05,      /* J = 11 */
(PID.TID 0000.0001)                 2.899523122489403E+05,      /* J = 12 */
(PID.TID 0000.0001)                 2.944741346384699E+05,      /* J = 13 */
(PID.TID 0000.0001)                 2.978547649292580E+05,      /* J = 14 */
(PID.TID 0000.0001)                 3.001044073506459E+05,      /* J = 15 */
(PID.TID 0000.0001)     2 @  3.012281885409289E+05,             /* J = 16: 17 */
(PID.TID 0000.0001)                 3.001044073506459E+05,      /* J = 18 */
(PID.TID 0000.0001)                 2.978547649292580E+05,      /* J = 19 */
(PID.TID 0000.0001)                 2.944741346384699E+05,      /* J = 20 */
(PID.TID 0000.0001)                 2.899523122489403E+05,      /* J = 21 */
(PID.TID 0000.0001)                 2.842706922224557E+05,      /* J = 22 */
(PID.TID 0000.0001)                 2.773972106720365E+05,      /* J = 23 */
(PID.TID 0000.0001)                 2.692787333338535E+05,      /* J = 24 */
(PID.TID 0000.0001)                 2.598293319150326E+05,      /* J = 25 */
(PID.TID 0000.0001)                 2.489113743322025E+05,      /* J = 26 */
(PID.TID 0000.0001)                 2.363029564123586E+05,      /* J = 27 */
(PID.TID 0000.0001)                 2.216367828252819E+05,      /* J = 28 */
(PID.TID 0000.0001)                 2.042717761866506E+05,      /* J = 29 */
(PID.TID 0000.0001)                 1.829777599966776E+05,      /* J = 30 */
(PID.TID 0000.0001)                 1.549545757850771E+05,      /* J = 31 */
(PID.TID 0000.0001)                 1.135373000692312E+05       /* J = 32 */
(PID.TID 0000.0001)     ;
(PID.TID 0000.0001) dyC =  /* dyC(:,1,:,1) ( units: m ) */
(PID.TID 0000.0001)                 1.135373000692312E+05,      /* I =  1 */
(PID.TID 0000.0001)                 1.549545757850771E+05,      /* I =  2 */
(PID.TID 0000.0001)                 1.829777599966776E+05,      /* I =  3 */
(PID.TID 0000.0001)      . . .
(PID.TID 0000.0001)                 2.978547649292580E+05,      /* I = 46 */
(PID.TID 0000.0001)                 3.001044073506459E+05,      /* I = 47 */
(PID.TID 0000.0001)                 3.012281885409289E+05,      /* I = 48 */
(PID.TID 0000.0001)                 3.012281885409289E+05,      /* I = 49 */
(PID.TID 0000.0001)                 3.001044073506459E+05,      /* I = 50 */
(PID.TID 0000.0001)                 2.978547649292580E+05,      /* I = 51 */
(PID.TID 0000.0001)      . . .
(PID.TID 0000.0001)                 1.829777599966776E+05,      /* I = 94 */
(PID.TID 0000.0001)                 1.549545757850771E+05,      /* I = 95 */
(PID.TID 0000.0001)                 1.135373000692312E+05,      /* I = 96 */
(PID.TID 0000.0001)                 1.135373000692312E+05,      /* I = 97 */
(PID.TID 0000.0001)                 1.549545757850771E+05,      /* I = 98 */
(PID.TID 0000.0001)                 1.829777599966776E+05,      /* I = 99 */
(PID.TID 0000.0001)      . . .
(PID.TID 0000.0001)                 2.978547649292580E+05,      /* I =142 */
(PID.TID 0000.0001)                 3.001044073506459E+05,      /* I =143 */
(PID.TID 0000.0001)                 3.012281885409289E+05,      /* I =144 */
(PID.TID 0000.0001)                 3.012281885409289E+05,      /* I =145 */
(PID.TID 0000.0001)                 3.001044073506459E+05,      /* I =146 */
(PID.TID 0000.0001)                 2.978547649292580E+05,      /* I =147 */
(PID.TID 0000.0001)      . . .
(PID.TID 0000.0001)                 1.829777599966776E+05,      /* I =190 */
(PID.TID 0000.0001)                 1.549545757850771E+05,      /* I =191 */
(PID.TID 0000.0001)                 1.135373000692312E+05       /* I =192 */
(PID.TID 0000.0001)     ;
(PID.TID 0000.0001) dyC =  /* dyC(1,:,1,:) ( units: m ) */
(PID.TID 0000.0001)                 1.135373000692312E+05,      /* J =  1 */
(PID.TID 0000.0001)                 1.391343389937106E+05,      /* J =  2 */
(PID.TID 0000.0001)                 1.709574999026266E+05,      /* J =  3 */
(PID.TID 0000.0001)                 1.946503699269892E+05,      /* J =  4 */
(PID.TID 0000.0001)                 2.135964483342134E+05,      /* J =  5 */
(PID.TID 0000.0001)                 2.294195678257306E+05,      /* J =  6 */
(PID.TID 0000.0001)                 2.429464709770498E+05,      /* J =  7 */
(PID.TID 0000.0001)                 2.546408290696998E+05,      /* J =  8 */
(PID.TID 0000.0001)                 2.647791839299727E+05,      /* J =  9 */
(PID.TID 0000.0001)                 2.735321911346108E+05,      /* J = 10 */
(PID.TID 0000.0001)                 2.810065951609633E+05,      /* J = 11 */
(PID.TID 0000.0001)                 2.872689479506990E+05,      /* J = 12 */
(PID.TID 0000.0001)                 2.923599955312932E+05,      /* J = 13 */
(PID.TID 0000.0001)                 2.963038832565530E+05,      /* J = 14 */
(PID.TID 0000.0001)                 2.991142470004740E+05,      /* J = 15 */
(PID.TID 0000.0001)                 3.007982711627968E+05,      /* J = 16 */
(PID.TID 0000.0001)                 3.013593857228136E+05,      /* J = 17 */
(PID.TID 0000.0001)                 3.007982711627968E+05,      /* J = 18 */
(PID.TID 0000.0001)                 2.991142470004740E+05,      /* J = 19 */
(PID.TID 0000.0001)                 2.963038832565530E+05,      /* J = 20 */
(PID.TID 0000.0001)                 2.923599955312932E+05,      /* J = 21 */
(PID.TID 0000.0001)                 2.872689479506990E+05,      /* J = 22 */
(PID.TID 0000.0001)                 2.810065951609633E+05,      /* J = 23 */
(PID.TID 0000.0001)                 2.735321911346108E+05,      /* J = 24 */
(PID.TID 0000.0001)                 2.647791839299727E+05,      /* J = 25 */
(PID.TID 0000.0001)                 2.546408290696998E+05,      /* J = 26 */
(PID.TID 0000.0001)                 2.429464709770498E+05,      /* J = 27 */
(PID.TID 0000.0001)                 2.294195678257306E+05,      /* J = 28 */
(PID.TID 0000.0001)                 2.135964483342134E+05,      /* J = 29 */
(PID.TID 0000.0001)                 1.946503699269892E+05,      /* J = 30 */
(PID.TID 0000.0001)                 1.709574999026266E+05,      /* J = 31 */
(PID.TID 0000.0001)                 1.391343389937106E+05       /* J = 32 */
(PID.TID 0000.0001)     ;
(PID.TID 0000.0001) dxV =  /* dxV(:,1,:,1) ( units: m ) */
(PID.TID 0000.0001)                 8.015229982413632E+04,      /* I =  1 */
(PID.TID 0000.0001)                 1.333130744933864E+05,      /* I =  2 */
(PID.TID 0000.0001)                 1.691744868129062E+05,      /* I =  3 */
(PID.TID 0000.0001)      . . .
(PID.TID 0000.0001)                 2.962371870847826E+05,      /* I = 46 */
(PID.TID 0000.0001)                 2.990534755671296E+05,      /* I = 47 */
(PID.TID 0000.0001)                 3.007409169495504E+05,      /* I = 48 */
(PID.TID 0000.0001)                 3.013031486919771E+05,      /* I = 49 */
(PID.TID 0000.0001)                 3.007409169495504E+05,      /* I = 50 */
(PID.TID 0000.0001)                 2.990534755671296E+05,      /* I = 51 */
(PID.TID 0000.0001)      . . .
(PID.TID 0000.0001)                 1.937548202849060E+05,      /* I = 94 */
(PID.TID 0000.0001)                 1.691744868129062E+05,      /* I = 95 */
(PID.TID 0000.0001)                 1.333130744933864E+05,      /* I = 96 */
(PID.TID 0000.0001)                 8.015229982413632E+04,      /* I = 97 */
(PID.TID 0000.0001)                 1.333130744933864E+05,      /* I = 98 */
(PID.TID 0000.0001)                 1.691744868129062E+05,      /* I = 99 */
(PID.TID 0000.0001)      . . .
(PID.TID 0000.0001)                 2.962371870847826E+05,      /* I =142 */
(PID.TID 0000.0001)                 2.990534755671296E+05,      /* I =143 */
(PID.TID 0000.0001)                 3.007409169495504E+05,      /* I =144 */
(PID.TID 0000.0001)                 3.013031486919771E+05,      /* I =145 */
(PID.TID 0000.0001)                 3.007409169495504E+05,      /* I =146 */
(PID.TID 0000.0001)                 2.990534755671296E+05,      /* I =147 */
(PID.TID 0000.0001)      . . .
(PID.TID 0000.0001)                 1.937548202849060E+05,      /* I =190 */
(PID.TID 0000.0001)                 1.691744868129062E+05,      /* I =191 */
(PID.TID 0000.0001)                 1.333130744933864E+05       /* I =192 */
(PID.TID 0000.0001)     ;
(PID.TID 0000.0001) dxV =  /* dxV(1,:,1,:) ( units: m ) */
(PID.TID 0000.0001)                 8.015229982413632E+04,      /* J =  1 */
(PID.TID 0000.0001)                 1.362652340208229E+05,      /* J =  2 */
(PID.TID 0000.0001)                 1.701080315742101E+05,      /* J =  3 */
(PID.TID 0000.0001)                 1.942331448101592E+05,      /* J =  4 */
(PID.TID 0000.0001)                 2.133486626971531E+05,      /* J =  5 */
(PID.TID 0000.0001)                 2.292584591272880E+05,      /* J =  6 */
(PID.TID 0000.0001)                 2.428369969078989E+05,      /* J =  7 */
(PID.TID 0000.0001)                 2.545652950875683E+05,      /* J =  8 */
(PID.TID 0000.0001)                 2.647274964828301E+05,      /* J =  9 */
(PID.TID 0000.0001)                 2.734980225206389E+05,      /* J = 10 */
(PID.TID 0000.0001)                 2.809856491525217E+05,      /* J = 11 */
(PID.TID 0000.0001)                 2.872580915202295E+05,      /* J = 12 */
(PID.TID 0000.0001)                 2.923567890694162E+05,      /* J = 13 */
(PID.TID 0000.0001)                 2.963063101754721E+05,      /* J = 14 */
(PID.TID 0000.0001)                 2.991205495886625E+05,      /* J = 15 */
(PID.TID 0000.0001)                 3.008068453676764E+05,      /* J = 16 */
(PID.TID 0000.0001)                 3.013686170436881E+05,      /* J = 17 */
(PID.TID 0000.0001)                 3.008068453676764E+05,      /* J = 18 */
(PID.TID 0000.0001)                 2.991205495886625E+05,      /* J = 19 */
(PID.TID 0000.0001)                 2.963063101754721E+05,      /* J = 20 */
(PID.TID 0000.0001)                 2.923567890694162E+05,      /* J = 21 */
(PID.TID 0000.0001)                 2.872580915202295E+05,      /* J = 22 */
(PID.TID 0000.0001)                 2.809856491525217E+05,      /* J = 23 */
(PID.TID 0000.0001)                 2.734980225206389E+05,      /* J = 24 */
(PID.TID 0000.0001)                 2.647274964828301E+05,      /* J = 25 */
(PID.TID 0000.0001)                 2.545652950875683E+05,      /* J = 26 */
(PID.TID 0000.0001)                 2.428369969078989E+05,      /* J = 27 */
(PID.TID 0000.0001)                 2.292584591272880E+05,      /* J = 28 */
(PID.TID 0000.0001)                 2.133486626971531E+05,      /* J = 29 */
(PID.TID 0000.0001)                 1.942331448101592E+05,      /* J = 30 */
(PID.TID 0000.0001)                 1.701080315742101E+05,      /* J = 31 */
(PID.TID 0000.0001)                 1.362652340208229E+05       /* J = 32 */
(PID.TID 0000.0001)     ;
(PID.TID 0000.0001) dyU =  /* dyU(:,1,:,1) ( units: m ) */
(PID.TID 0000.0001)                 8.015229982413632E+04,      /* I =  1 */
(PID.TID 0000.0001)                 1.362652340208229E+05,      /* I =  2 */
(PID.TID 0000.0001)                 1.701080315742101E+05,      /* I =  3 */
(PID.TID 0000.0001)      . . .
(PID.TID 0000.0001)                 2.963063101754721E+05,      /* I = 46 */
(PID.TID 0000.0001)                 2.991205495886625E+05,      /* I = 47 */
(PID.TID 0000.0001)                 3.008068453676764E+05,      /* I = 48 */
(PID.TID 0000.0001)                 3.013686170436881E+05,      /* I = 49 */
(PID.TID 0000.0001)                 3.008068453676764E+05,      /* I = 50 */
(PID.TID 0000.0001)                 2.991205495886625E+05,      /* I = 51 */
(PID.TID 0000.0001)      . . .
(PID.TID 0000.0001)                 1.942331448101592E+05,      /* I = 94 */
(PID.TID 0000.0001)                 1.701080315742101E+05,      /* I = 95 */
(PID.TID 0000.0001)                 1.362652340208229E+05,      /* I = 96 */
(PID.TID 0000.0001)                 8.015229982413632E+04,      /* I = 97 */
(PID.TID 0000.0001)                 1.362652340208229E+05,      /* I = 98 */
(PID.TID 0000.0001)                 1.701080315742101E+05,      /* I = 99 */
(PID.TID 0000.0001)      . . .
(PID.TID 0000.0001)                 2.963063101754721E+05,      /* I =142 */
(PID.TID 0000.0001)                 2.991205495886625E+05,      /* I =143 */
(PID.TID 0000.0001)                 3.008068453676764E+05,      /* I =144 */
(PID.TID 0000.0001)                 3.013686170436881E+05,      /* I =145 */
(PID.TID 0000.0001)                 3.008068453676764E+05,      /* I =146 */
(PID.TID 0000.0001)                 2.991205495886625E+05,      /* I =147 */
(PID.TID 0000.0001)      . . .
(PID.TID 0000.0001)                 1.942331448101592E+05,      /* I =190 */
(PID.TID 0000.0001)                 1.701080315742101E+05,      /* I =191 */
(PID.TID 0000.0001)                 1.362652340208229E+05       /* I =192 */
(PID.TID 0000.0001)     ;
(PID.TID 0000.0001) dyU =  /* dyU(1,:,1,:) ( units: m ) */
(PID.TID 0000.0001)                 8.015229982413632E+04,      /* J =  1 */
(PID.TID 0000.0001)                 1.333130744933864E+05,      /* J =  2 */
(PID.TID 0000.0001)                 1.691744868129062E+05,      /* J =  3 */
(PID.TID 0000.0001)                 1.937548202849060E+05,      /* J =  4 */
(PID.TID 0000.0001)                 2.130490056267208E+05,      /* J =  5 */
(PID.TID 0000.0001)                 2.290479919481738E+05,      /* J =  6 */
(PID.TID 0000.0001)                 2.426774358027003E+05,      /* J =  7 */
(PID.TID 0000.0001)                 2.544372984215561E+05,      /* J =  8 */
(PID.TID 0000.0001)                 2.646201463834826E+05,      /* J =  9 */
(PID.TID 0000.0001)                 2.734046499619031E+05,      /* J = 10 */
(PID.TID 0000.0001)                 2.809019351693761E+05,      /* J = 11 */
(PID.TID 0000.0001)                 2.871811105274442E+05,      /* J = 12 */
(PID.TID 0000.0001)                 2.922844849381675E+05,      /* J = 13 */
(PID.TID 0000.0001)                 2.962371870847826E+05,      /* J = 14 */
(PID.TID 0000.0001)                 2.990534755671296E+05,      /* J = 15 */
(PID.TID 0000.0001)                 3.007409169495504E+05,      /* J = 16 */
(PID.TID 0000.0001)                 3.013031486919771E+05,      /* J = 17 */
(PID.TID 0000.0001)                 3.007409169495504E+05,      /* J = 18 */
(PID.TID 0000.0001)                 2.990534755671296E+05,      /* J = 19 */
(PID.TID 0000.0001)                 2.962371870847826E+05,      /* J = 20 */
(PID.TID 0000.0001)                 2.922844849381675E+05,      /* J = 21 */
(PID.TID 0000.0001)                 2.871811105274442E+05,      /* J = 22 */
(PID.TID 0000.0001)                 2.809019351693761E+05,      /* J = 23 */
(PID.TID 0000.0001)                 2.734046499619031E+05,      /* J = 24 */
(PID.TID 0000.0001)                 2.646201463834826E+05,      /* J = 25 */
(PID.TID 0000.0001)                 2.544372984215561E+05,      /* J = 26 */
(PID.TID 0000.0001)                 2.426774358027003E+05,      /* J = 27 */
(PID.TID 0000.0001)                 2.290479919481738E+05,      /* J = 28 */
(PID.TID 0000.0001)                 2.130490056267208E+05,      /* J = 29 */
(PID.TID 0000.0001)                 1.937548202849060E+05,      /* J = 30 */
(PID.TID 0000.0001)                 1.691744868129062E+05,      /* J = 31 */
(PID.TID 0000.0001)                 1.333130744933864E+05       /* J = 32 */
(PID.TID 0000.0001)     ;
(PID.TID 0000.0001) rA  =  /* rA (:,1,:,1) ( units: m^2 ) */
(PID.TID 0000.0001)                 1.549786705672200E+10,      /* I =  1 */
(PID.TID 0000.0001)                 2.487202533723944E+10,      /* I =  2 */
(PID.TID 0000.0001)                 3.392265412140352E+10,      /* I =  3 */
(PID.TID 0000.0001)      . . .
(PID.TID 0000.0001)                 8.871245486529788E+10,      /* I = 46 */
(PID.TID 0000.0001)                 9.005359372079962E+10,      /* I = 47 */
(PID.TID 0000.0001)                 9.072735712796770E+10,      /* I = 48 */
(PID.TID 0000.0001)                 9.072735712796770E+10,      /* I = 49 */
(PID.TID 0000.0001)                 9.005359372079962E+10,      /* I = 50 */
(PID.TID 0000.0001)                 8.871245486529788E+10,      /* I = 51 */
(PID.TID 0000.0001)      . . .
(PID.TID 0000.0001)                 3.392265412140352E+10,      /* I = 94 */
(PID.TID 0000.0001)                 2.487202533723944E+10,      /* I = 95 */
(PID.TID 0000.0001)                 1.549786705672200E+10,      /* I = 96 */
(PID.TID 0000.0001)                 1.549786705672200E+10,      /* I = 97 */
(PID.TID 0000.0001)                 2.487202533723944E+10,      /* I = 98 */
(PID.TID 0000.0001)                 3.392265412140352E+10,      /* I = 99 */
(PID.TID 0000.0001)      . . .
(PID.TID 0000.0001)                 8.871245486529788E+10,      /* I =142 */
(PID.TID 0000.0001)                 9.005359372079962E+10,      /* I =143 */
(PID.TID 0000.0001)                 9.072735712796770E+10,      /* I =144 */
(PID.TID 0000.0001)                 9.072735712796770E+10,      /* I =145 */
(PID.TID 0000.0001)                 9.005359372079962E+10,      /* I =146 */
(PID.TID 0000.0001)                 8.871245486529788E+10,      /* I =147 */
(PID.TID 0000.0001)      . . .
(PID.TID 0000.0001)                 3.392265412140352E+10,      /* I =190 */
(PID.TID 0000.0001)                 2.487202533723944E+10,      /* I =191 */
(PID.TID 0000.0001)                 1.549786705672200E+10       /* I =192 */
(PID.TID 0000.0001)     ;
(PID.TID 0000.0001) rA  =  /* rA (1,:,1,:) ( units: m^2 ) */
(PID.TID 0000.0001)                 1.549786705672200E+10,      /* J =  1 */
(PID.TID 0000.0001)                 2.487202533723944E+10,      /* J =  2 */
(PID.TID 0000.0001)                 3.392265412140352E+10,      /* J =  3 */
(PID.TID 0000.0001)                 4.200427377313133E+10,      /* J =  4 */
(PID.TID 0000.0001)                 4.931323764668228E+10,      /* J =  5 */
(PID.TID 0000.0001)                 5.597545074899419E+10,      /* J =  6 */
(PID.TID 0000.0001)                 6.205603937791459E+10,      /* J =  7 */
(PID.TID 0000.0001)                 6.758299971934573E+10,      /* J =  8 */
(PID.TID 0000.0001)                 7.256155653843707E+10,      /* J =  9 */
(PID.TID 0000.0001)                 7.698291833687604E+10,      /* J = 10 */
(PID.TID 0000.0001)                 8.083005486272011E+10,      /* J = 11 */
(PID.TID 0000.0001)                 8.408183191745641E+10,      /* J = 12 */
(PID.TID 0000.0001)                 8.671615787312848E+10,      /* J = 13 */
(PID.TID 0000.0001)                 8.871245486529788E+10,      /* J = 14 */
(PID.TID 0000.0001)                 9.005359372079964E+10,      /* J = 15 */
(PID.TID 0000.0001)     2 @  9.072735712796770E+10,             /* J = 16: 17 */
(PID.TID 0000.0001)                 9.005359372079964E+10,      /* J = 18 */
(PID.TID 0000.0001)                 8.871245486529788E+10,      /* J = 19 */
(PID.TID 0000.0001)                 8.671615787312848E+10,      /* J = 20 */
(PID.TID 0000.0001)                 8.408183191745641E+10,      /* J = 21 */
(PID.TID 0000.0001)                 8.083005486272011E+10,      /* J = 22 */
(PID.TID 0000.0001)                 7.698291833687604E+10,      /* J = 23 */
(PID.TID 0000.0001)                 7.256155653843707E+10,      /* J = 24 */
(PID.TID 0000.0001)                 6.758299971934573E+10,      /* J = 25 */
(PID.TID 0000.0001)                 6.205603937791459E+10,      /* J = 26 */
(PID.TID 0000.0001)                 5.597545074899419E+10,      /* J = 27 */
(PID.TID 0000.0001)                 4.931323764668228E+10,      /* J = 28 */
(PID.TID 0000.0001)                 4.200427377313133E+10,      /* J = 29 */
(PID.TID 0000.0001)                 3.392265412140352E+10,      /* J = 30 */
(PID.TID 0000.0001)                 2.487202533723944E+10,      /* J = 31 */
(PID.TID 0000.0001)                 1.549786705672200E+10       /* J = 32 */
(PID.TID 0000.0001)     ;
(PID.TID 0000.0001) rAw =  /* rAw(:,1,:,1) ( units: m^2 ) */
(PID.TID 0000.0001)                 1.146542574196578E+10,      /* I =  1 */
(PID.TID 0000.0001)                 1.953030837147821E+10,      /* I =  2 */
(PID.TID 0000.0001)                 2.933967873337320E+10,      /* I =  3 */
(PID.TID 0000.0001)      . . .
(PID.TID 0000.0001)                 8.781604517750543E+10,      /* I = 46 */
(PID.TID 0000.0001)                 8.948917519517891E+10,      /* I = 47 */
(PID.TID 0000.0001)                 9.049933392602551E+10,      /* I = 48 */
(PID.TID 0000.0001)                 9.083715262395341E+10,      /* I = 49 */
(PID.TID 0000.0001)                 9.049933392602551E+10,      /* I = 50 */
(PID.TID 0000.0001)                 8.948917519517891E+10,      /* I = 51 */
(PID.TID 0000.0001)      . . .
(PID.TID 0000.0001)                 3.796176706541101E+10,      /* I = 94 */
(PID.TID 0000.0001)                 2.933967873337320E+10,      /* I = 95 */
(PID.TID 0000.0001)                 1.953030837147821E+10,      /* I = 96 */
(PID.TID 0000.0001)                 1.146542574196578E+10,      /* I = 97 */
(PID.TID 0000.0001)                 1.953030837147821E+10,      /* I = 98 */
(PID.TID 0000.0001)                 2.933967873337320E+10,      /* I = 99 */
(PID.TID 0000.0001)      . . .
(PID.TID 0000.0001)                 8.781604517750543E+10,      /* I =142 */
(PID.TID 0000.0001)                 8.948917519517891E+10,      /* I =143 */
(PID.TID 0000.0001)                 9.049933392602551E+10,      /* I =144 */
(PID.TID 0000.0001)                 9.083715262395341E+10,      /* I =145 */
(PID.TID 0000.0001)                 9.049933392602551E+10,      /* I =146 */
(PID.TID 0000.0001)                 8.948917519517891E+10,      /* I =147 */
(PID.TID 0000.0001)      . . .
(PID.TID 0000.0001)                 3.796176706541101E+10,      /* I =190 */
(PID.TID 0000.0001)                 2.933967873337320E+10,      /* I =191 */
(PID.TID 0000.0001)                 1.953030837147821E+10       /* I =192 */
(PID.TID 0000.0001)     ;
(PID.TID 0000.0001) rAw =  /* rAw(1,:,1,:) ( units: m^2 ) */
(PID.TID 0000.0001)                 1.146542574196578E+10,      /* J =  1 */
(PID.TID 0000.0001)                 2.377787005983833E+10,      /* J =  2 */
(PID.TID 0000.0001)                 3.336273018972140E+10,      /* J =  3 */
(PID.TID 0000.0001)                 4.165099566747280E+10,      /* J =  4 */
(PID.TID 0000.0001)                 4.906782896008959E+10,      /* J =  5 */
(PID.TID 0000.0001)                 5.579613053300137E+10,      /* J =  6 */
(PID.TID 0000.0001)                 6.192151981164894E+10,      /* J =  7 */
(PID.TID 0000.0001)                 6.748097638954340E+10,      /* J =  8 */
(PID.TID 0000.0001)                 7.248418794208269E+10,      /* J =  9 */
(PID.TID 0000.0001)                 7.692477203447566E+10,      /* J = 10 */
(PID.TID 0000.0001)                 8.078707194826852E+10,      /* J = 11 */
(PID.TID 0000.0001)                 8.405076334249313E+10,      /* J = 12 */
(PID.TID 0000.0001)                 8.669423991218034E+10,      /* J = 13 */
(PID.TID 0000.0001)                 8.869721460381146E+10,      /* J = 14 */
(PID.TID 0000.0001)                 9.004272888354184E+10,      /* J = 15 */
(PID.TID 0000.0001)     2 @  9.071865929421040E+10,             /* J = 16: 17 */
(PID.TID 0000.0001)                 9.004272888354184E+10,      /* J = 18 */
(PID.TID 0000.0001)                 8.869721460381146E+10,      /* J = 19 */
(PID.TID 0000.0001)                 8.669423991218034E+10,      /* J = 20 */
(PID.TID 0000.0001)                 8.405076334249313E+10,      /* J = 21 */
(PID.TID 0000.0001)                 8.078707194826852E+10,      /* J = 22 */
(PID.TID 0000.0001)                 7.692477203447566E+10,      /* J = 23 */
(PID.TID 0000.0001)                 7.248418794208269E+10,      /* J = 24 */
(PID.TID 0000.0001)                 6.748097638954340E+10,      /* J = 25 */
(PID.TID 0000.0001)                 6.192151981164894E+10,      /* J = 26 */
(PID.TID 0000.0001)                 5.579613053300137E+10,      /* J = 27 */
(PID.TID 0000.0001)                 4.906782896008959E+10,      /* J = 28 */
(PID.TID 0000.0001)                 4.165099566747280E+10,      /* J = 29 */
(PID.TID 0000.0001)                 3.336273018972140E+10,      /* J = 30 */
(PID.TID 0000.0001)                 2.377787005983833E+10,      /* J = 31 */
(PID.TID 0000.0001)                 1.146542574196578E+10       /* J = 32 */
(PID.TID 0000.0001)     ;
(PID.TID 0000.0001) rAs =  /* rAs(:,1,:,1) ( units: m^2 ) */
(PID.TID 0000.0001)                 1.146542574196578E+10,      /* I =  1 */
(PID.TID 0000.0001)                 2.377787005983833E+10,      /* I =  2 */
(PID.TID 0000.0001)                 3.336273018972140E+10,      /* I =  3 */
(PID.TID 0000.0001)      . . .
(PID.TID 0000.0001)                 8.869721460381146E+10,      /* I = 46 */
(PID.TID 0000.0001)                 9.004272888354184E+10,      /* I = 47 */
(PID.TID 0000.0001)                 9.071865929421040E+10,      /* I = 48 */
(PID.TID 0000.0001)                 9.071865929421040E+10,      /* I = 49 */
(PID.TID 0000.0001)                 9.004272888354184E+10,      /* I = 50 */
(PID.TID 0000.0001)                 8.869721460381146E+10,      /* I = 51 */
(PID.TID 0000.0001)      . . .
(PID.TID 0000.0001)                 3.336273018972140E+10,      /* I = 94 */
(PID.TID 0000.0001)                 2.377787005983833E+10,      /* I = 95 */
(PID.TID 0000.0001)                 1.146542574196578E+10,      /* I = 96 */
(PID.TID 0000.0001)                 1.146542574196578E+10,      /* I = 97 */
(PID.TID 0000.0001)                 2.377787005983833E+10,      /* I = 98 */
(PID.TID 0000.0001)                 3.336273018972140E+10,      /* I = 99 */
(PID.TID 0000.0001)      . . .
(PID.TID 0000.0001)                 8.869721460381146E+10,      /* I =142 */
(PID.TID 0000.0001)                 9.004272888354184E+10,      /* I =143 */
(PID.TID 0000.0001)                 9.071865929421040E+10,      /* I =144 */
(PID.TID 0000.0001)                 9.071865929421040E+10,      /* I =145 */
(PID.TID 0000.0001)                 9.004272888354184E+10,      /* I =146 */
(PID.TID 0000.0001)                 8.869721460381146E+10,      /* I =147 */
(PID.TID 0000.0001)      . . .
(PID.TID 0000.0001)                 3.336273018972140E+10,      /* I =190 */
(PID.TID 0000.0001)                 2.377787005983833E+10,      /* I =191 */
(PID.TID 0000.0001)                 1.146542574196578E+10       /* I =192 */
(PID.TID 0000.0001)     ;
(PID.TID 0000.0001) rAs =  /* rAs(1,:,1,:) ( units: m^2 ) */
(PID.TID 0000.0001)                 1.146542574196578E+10,      /* J =  1 */
(PID.TID 0000.0001)                 1.953030837147821E+10,      /* J =  2 */
(PID.TID 0000.0001)                 2.933967873337320E+10,      /* J =  3 */
(PID.TID 0000.0001)                 3.796176706541101E+10,      /* J =  4 */
(PID.TID 0000.0001)                 4.567569462064098E+10,      /* J =  5 */
(PID.TID 0000.0001)                 5.267377164042021E+10,      /* J =  6 */
(PID.TID 0000.0001)                 5.905615583203223E+10,      /* J =  7 */
(PID.TID 0000.0001)                 6.487043381386549E+10,      /* J =  8 */
(PID.TID 0000.0001)                 7.013339442433482E+10,      /* J =  9 */
(PID.TID 0000.0001)                 7.484316069116351E+10,      /* J = 10 */
(PID.TID 0000.0001)                 7.898662143005907E+10,      /* J = 11 */
(PID.TID 0000.0001)                 8.254445101987663E+10,      /* J = 12 */
(PID.TID 0000.0001)                 8.549478360691351E+10,      /* J = 13 */
(PID.TID 0000.0001)                 8.781604517750543E+10,      /* J = 14 */
(PID.TID 0000.0001)                 8.948917519517891E+10,      /* J = 15 */
(PID.TID 0000.0001)                 9.049933392602551E+10,      /* J = 16 */
(PID.TID 0000.0001)                 9.083715262395341E+10,      /* J = 17 */
(PID.TID 0000.0001)                 9.049933392602551E+10,      /* J = 18 */
(PID.TID 0000.0001)                 8.948917519517891E+10,      /* J = 19 */
(PID.TID 0000.0001)                 8.781604517750543E+10,      /* J = 20 */
(PID.TID 0000.0001)                 8.549478360691351E+10,      /* J = 21 */
(PID.TID 0000.0001)                 8.254445101987663E+10,      /* J = 22 */
(PID.TID 0000.0001)                 7.898662143005907E+10,      /* J = 23 */
(PID.TID 0000.0001)                 7.484316069116351E+10,      /* J = 24 */
(PID.TID 0000.0001)                 7.013339442433482E+10,      /* J = 25 */
(PID.TID 0000.0001)                 6.487043381386549E+10,      /* J = 26 */
(PID.TID 0000.0001)                 5.905615583203223E+10,      /* J = 27 */
(PID.TID 0000.0001)                 5.267377164042021E+10,      /* J = 28 */
(PID.TID 0000.0001)                 4.567569462064098E+10,      /* J = 29 */
(PID.TID 0000.0001)                 3.796176706541101E+10,      /* J = 30 */
(PID.TID 0000.0001)                 2.933967873337320E+10,      /* J = 31 */
(PID.TID 0000.0001)                 1.953030837147821E+10       /* J = 32 */
(PID.TID 0000.0001)     ;
(PID.TID 0000.0001) globalArea = /* Integrated horizontal Area (m^2) */
(PID.TID 0000.0001)                 5.098642104278459E+14
(PID.TID 0000.0001)     ;
(PID.TID 0000.0001) hasWetCSCorners = /* Domain contains CS corners (True/False) */
(PID.TID 0000.0001)                   T
(PID.TID 0000.0001)     ;
(PID.TID 0000.0001) // =======================================================
(PID.TID 0000.0001) // End of Model config. summary
(PID.TID 0000.0001) // =======================================================
(PID.TID 0000.0001) 
(PID.TID 0000.0001) == Packages configuration : Check & print summary ==
(PID.TID 0000.0001) 
(PID.TID 0000.0001) ATM_PHYS_CHECK: #define ALLOW_ATM_PHYS
(PID.TID 0000.0001) atmPhys_addTendT = /* apply Atm-Phys tendency to Temperature Eq.*/
(PID.TID 0000.0001)                   T
(PID.TID 0000.0001)     ;
(PID.TID 0000.0001) atmPhys_addTendS = /* apply Atm-Phys tendency to Salinity Eq.*/
(PID.TID 0000.0001)                   T
(PID.TID 0000.0001)     ;
(PID.TID 0000.0001) atmPhys_addTendU = /* apply Atm-Phys tendency to U momentum Eq.*/
(PID.TID 0000.0001)                   T
(PID.TID 0000.0001)     ;
(PID.TID 0000.0001) atmPhys_addTendV = /* apply Atm-Phys tendency to V momentum Eq.*/
(PID.TID 0000.0001)                   T
(PID.TID 0000.0001)     ;
(PID.TID 0000.0001) atmPhys_stepSST = /* step forward SST field */
(PID.TID 0000.0001)                   T
(PID.TID 0000.0001)     ;
(PID.TID 0000.0001) atmPhys_dampUVfac = /* U,V danping coefficient (1/s) */
(PID.TID 0000.0001)    20 @  0.000000000000000E+00,             /* K =  1: 20 */
(PID.TID 0000.0001)                 1.446759259259259E-06,      /* K = 21 */
(PID.TID 0000.0001)                 2.893518518518518E-06,      /* K = 22 */
(PID.TID 0000.0001)                 5.787037037037037E-06,      /* K = 23 */
(PID.TID 0000.0001)                 1.157407407407407E-05,      /* K = 24 */
(PID.TID 0000.0001)                 2.314814814814815E-05,      /* K = 25 */
(PID.TID 0000.0001)                 4.629629629629629E-05       /* K = 26 */
(PID.TID 0000.0001)     ;
(PID.TID 0000.0001) atmPhys_SSTFile = /* SST input file */
(PID.TID 0000.0001)               'SST_APE_1.bin'
(PID.TID 0000.0001)     ;
(PID.TID 0000.0001) atmPhys_QflxFile = /* Q-flux input file */
(PID.TID 0000.0001)               ''
(PID.TID 0000.0001)     ;
(PID.TID 0000.0001) 
(PID.TID 0000.0001) GAD_CHECK: #define ALLOW_GENERIC_ADVDIFF
(PID.TID 0000.0001) // =======================================================
(PID.TID 0000.0001) // Check Model config. (CONFIG_CHECK):
(PID.TID 0000.0001) // CONFIG_CHECK : Normal End
(PID.TID 0000.0001) // =======================================================
(PID.TID 0000.0001) 
(PID.TID 0000.0001)  MDS_READ_FIELD: opening global file: ini_theta_26l.bin
(PID.TID 0000.0001)  MDS_READ_FIELD: opening global file: ini_specQ_26l.bin
(PID.TID 0000.0001) Start initial hydrostatic pressure computation
(PID.TID 0000.0001) Iteration   1, RMS-difference =  4.907418747971E+03
(PID.TID 0000.0001) Iteration   2, RMS-difference =  0.000000000000E+00
(PID.TID 0000.0001) Iteration   3, RMS-difference =  0.000000000000E+00
(PID.TID 0000.0001) Iteration   4, RMS-difference =  0.000000000000E+00
(PID.TID 0000.0001) Iteration   5, RMS-difference =  0.000000000000E+00
(PID.TID 0000.0001) Iteration   6, RMS-difference =  0.000000000000E+00
(PID.TID 0000.0001) Iteration   7, RMS-difference =  0.000000000000E+00
(PID.TID 0000.0001) Iteration   8, RMS-difference =  0.000000000000E+00
(PID.TID 0000.0001) Iteration   9, RMS-difference =  0.000000000000E+00
(PID.TID 0000.0001) Iteration  10, RMS-difference =  0.000000000000E+00
(PID.TID 0000.0001) Iteration  11, RMS-difference =  0.000000000000E+00
(PID.TID 0000.0001) Iteration  12, RMS-difference =  0.000000000000E+00
(PID.TID 0000.0001) Iteration  13, RMS-difference =  0.000000000000E+00
(PID.TID 0000.0001) Iteration  14, RMS-difference =  0.000000000000E+00
(PID.TID 0000.0001) Iteration  15, RMS-difference =  0.000000000000E+00
(PID.TID 0000.0001) Initial hydrostatic pressure converged.
(PID.TID 0000.0001) 
(PID.TID 0000.0001)  write diagnostics summary to file ioUnit:      6
Iter.Nb:         0 ; Time(s):  0.0000000000000E+00
------------------------------------------------------------------------
2D/3D diagnostics: Number of lists:     2
------------------------------------------------------------------------
listId=    1 ; file name: surfDiag
 nFlds, nActive,       freq     &     phase        , nLev               
   15  |   15  |    432000.000000         0.000000 |   1
 levels:   1
 diag# | name   |   ipt  |  iMate | kLev|   count |   mate.C|           
    23 |ETAN    |      1 |      0 |   1 |       0 |
    24 |ETANSQ  |      2 |      0 |   1 |       0 |
    25 |DETADT2 |      3 |      0 |   1 |       0 |
   195 |AtPhCnvP|      4 |      0 |   1 |       0 |
   196 |AtPhLscP|      5 |      0 |   1 |       0 |
   202 |AtPhSens|      6 |      0 |   1 |       0 |
   203 |AtPhEvap|      7 |      0 |   1 |       0 |
   204 |AtPhTauX|      8 |      0 |   1 |       0 |
   205 |AtPhTauY|      9 |      0 |   1 |       0 |
   188 |AtPh_SST|     10 |      0 |   1 |       0 |
   197 |AtPhInSR|     11 |      0 |   1 |       0 |
   198 |AtPhOLR |     12 |      0 |   1 |       0 |
   199 |AtPhNSSR|     13 |      0 |   1 |       0 |
   200 |AtPhDSLR|     14 |      0 |   1 |       0 |
   201 |AtPhUSLR|     15 |      0 |   1 |       0 |
------------------------------------------------------------------------
listId=    2 ; file name: dynDiag
 nFlds, nActive,       freq     &     phase        , nLev               
   22  |   22  |    432000.000000         0.000000 |  26
 levels:   1   2   3   4   5   6   7   8   9  10  11  12  13  14  15  16  17  18  19  20  21  22  23  24  25
 levels:  26
 diag# | name   |   ipt  |  iMate | kLev|   count |   mate.C|           
    29 |UVEL    |     16 |     42 |  26 |       0 |       0 |
    30 |VVEL    |     42 |     16 |  26 |       0 |       0 |
    31 |WVEL    |     68 |      0 |  26 |       0 |
    26 |THETA   |     94 |      0 |  26 |       0 |
    27 |SALT    |    120 |      0 |  26 |       0 |
    34 |UVELSQ  |    146 |    172 |  26 |       0 |       0 |
    35 |VVELSQ  |    172 |    146 |  26 |       0 |       0 |
    36 |WVELSQ  |    198 |      0 |  26 |       0 |
    32 |THETASQ |    224 |      0 |  26 |       0 |
    33 |SALTSQ  |    250 |      0 |  26 |       0 |
    43 |UVELMASS|    276 |    302 |  26 |       0 |       0 |
    44 |VVELMASS|    302 |    276 |  26 |       0 |       0 |
    39 |UV_VEL_C|    328 |    328 |  26 |       0 |       0 |
    28 |RELHUM  |    354 |      0 |  26 |       0 |
   189 |AtPhdTdt|    380 |      0 |  26 |       0 |
   190 |AtPhdQdt|    406 |      0 |  26 |       0 |
   191 |AtPhdUdt|    432 |    458 |  26 |       0 |       0 |
   192 |AtPhdVdt|    458 |    432 |  26 |       0 |       0 |
   206 |AtPhdtTg|    484 |      0 |  26 |       0 |
   207 |AtPhdtQg|    510 |      0 |  26 |       0 |
   193 |AtPhDifT|    536 |      0 |  26 |       0 |
   194 |AtPhDifM|    562 |      0 |  26 |       0 |
------------------------------------------------------------------------
Global & Regional Statistics diagnostics: Number of lists:     3
------------------------------------------------------------------------
listId=   1 ; file name: dynStDiag
 nFlds, nActive,       freq     &     phase        |                    
   11  |   11  |     43200.000000         0.000000 |
 Regions:   0
 diag# | name   |   ipt  |  iMate |    Volume   |   mate-Vol. |         
    23 |ETAN    |      1 |      0 | 0.00000E+00 |
    26 |THETA   |      2 |      0 | 0.00000E+00 |
    27 |SALT    |     28 |      0 | 0.00000E+00 |
    28 |RELHUM  |     54 |      0 | 0.00000E+00 |
    37 |UE_VEL_C|     80 |      0 | 0.00000E+00 |
    38 |VN_VEL_C|    106 |      0 | 0.00000E+00 |
    31 |WVEL    |    132 |      0 | 0.00000E+00 |
   189 |AtPhdTdt|    158 |      0 | 0.00000E+00 |
   190 |AtPhdQdt|    184 |      0 | 0.00000E+00 |
   191 |AtPhdUdt|    210 |      0 | 0.00000E+00 |
   192 |AtPhdVdt|    236 |      0 | 0.00000E+00 |
------------------------------------------------------------------------
listId=   2 ; file name: diffStDiag
 nFlds, nActive,       freq     &     phase        |                    
    7  |    7  |     43200.000000         0.000000 |
 Regions:   0
 diag# | name   |   ipt  |  iMate |    Volume   |   mate-Vol. |         
   193 |AtPhDifT|    262 |      0 | 0.00000E+00 |
   194 |AtPhDifM|    288 |      0 | 0.00000E+00 |
   208 |AtPhDisH|    314 |      0 | 0.00000E+00 |
   206 |AtPhdtTg|    340 |      0 | 0.00000E+00 |
   207 |AtPhdtQg|    366 |      0 | 0.00000E+00 |
   187 |SHAP_dKE|    392 |      0 | 0.00000E+00 |
    98 |MoistCor|    418 |      0 | 0.00000E+00 |
------------------------------------------------------------------------
listId=   3 ; file name: flxStDiag
 nFlds, nActive,       freq     &     phase        |                    
   12  |   12  |     43200.000000         0.000000 |
 Regions:   0
 diag# | name   |   ipt  |  iMate |    Volume   |   mate-Vol. |         
   202 |AtPhSens|    444 |      0 | 0.00000E+00 |
   203 |AtPhEvap|    445 |      0 | 0.00000E+00 |
   204 |AtPhTauX|    446 |      0 | 0.00000E+00 |
   205 |AtPhTauY|    447 |      0 | 0.00000E+00 |
   195 |AtPhCnvP|    448 |      0 | 0.00000E+00 |
   196 |AtPhLscP|    449 |      0 | 0.00000E+00 |
   188 |AtPh_SST|    450 |      0 | 0.00000E+00 |
   197 |AtPhInSR|    451 |      0 | 0.00000E+00 |
   198 |AtPhOLR |    452 |      0 | 0.00000E+00 |
   199 |AtPhNSSR|    453 |      0 | 0.00000E+00 |
   200 |AtPhDSLR|    454 |      0 | 0.00000E+00 |
   201 |AtPhUSLR|    455 |      0 | 0.00000E+00 |
------------------------------------------------------------------------
(PID.TID 0000.0001)  MDS_READ_FIELD: opening global file: SST_APE_1.bin
(PID.TID 0000.0001) // =======================================================
(PID.TID 0000.0001) // Model current state
(PID.TID 0000.0001) // =======================================================
(PID.TID 0000.0001) 
(PID.TID 0000.0001) // =======================================================
(PID.TID 0000.0001) // Begin MONITOR dynamic field statistics
(PID.TID 0000.0001) // =======================================================
(PID.TID 0000.0001) %MON time_tsnumber                =                     0
(PID.TID 0000.0001) %MON time_secondsf                =   0.0000000000000E+00
(PID.TID 0000.0001) %MON dynstat_eta_max              =   0.0000000000000E+00
(PID.TID 0000.0001) %MON dynstat_eta_min              =   0.0000000000000E+00
(PID.TID 0000.0001) %MON dynstat_eta_mean             =   0.0000000000000E+00
(PID.TID 0000.0001) %MON dynstat_eta_sd               =   0.0000000000000E+00
(PID.TID 0000.0001) %MON dynstat_eta_del2             =   0.0000000000000E+00
(PID.TID 0000.0001) %MON dynstat_uvel_max             =   0.0000000000000E+00
(PID.TID 0000.0001) %MON dynstat_uvel_min             =   0.0000000000000E+00
(PID.TID 0000.0001) %MON dynstat_uvel_mean            =   0.0000000000000E+00
(PID.TID 0000.0001) %MON dynstat_uvel_sd              =   0.0000000000000E+00
(PID.TID 0000.0001) %MON dynstat_uvel_del2            =   0.0000000000000E+00
(PID.TID 0000.0001) %MON dynstat_vvel_max             =   0.0000000000000E+00
(PID.TID 0000.0001) %MON dynstat_vvel_min             =   0.0000000000000E+00
(PID.TID 0000.0001) %MON dynstat_vvel_mean            =   0.0000000000000E+00
(PID.TID 0000.0001) %MON dynstat_vvel_sd              =   0.0000000000000E+00
(PID.TID 0000.0001) %MON dynstat_vvel_del2            =   0.0000000000000E+00
(PID.TID 0000.0001) %MON dynstat_wvel_max             =   0.0000000000000E+00
(PID.TID 0000.0001) %MON dynstat_wvel_min             =   0.0000000000000E+00
(PID.TID 0000.0001) %MON dynstat_wvel_mean            =   0.0000000000000E+00
(PID.TID 0000.0001) %MON dynstat_wvel_sd              =   0.0000000000000E+00
(PID.TID 0000.0001) %MON dynstat_wvel_del2            =   0.0000000000000E+00
(PID.TID 0000.0001) %MON dynstat_theta_max            =   1.1535634846852E+03
(PID.TID 0000.0001) %MON dynstat_theta_min            =   2.5507757432656E+02
(PID.TID 0000.0001) %MON dynstat_theta_mean           =   3.2787660662240E+02
(PID.TID 0000.0001) %MON dynstat_theta_sd             =   9.0371224687477E+01
(PID.TID 0000.0001) %MON dynstat_theta_del2           =   5.5192238657586E-04
(PID.TID 0000.0001) %MON dynstat_salt_max             =   2.0315162198281E-02
(PID.TID 0000.0001) %MON dynstat_salt_min             =   0.0000000000000E+00
(PID.TID 0000.0001) %MON dynstat_salt_mean            =   1.7953625902710E-03
(PID.TID 0000.0001) %MON dynstat_salt_sd              =   3.7984703449388E-03
(PID.TID 0000.0001) %MON dynstat_salt_del2            =   1.3625554215944E-07
(PID.TID 0000.0001) %MON advcfl_uvel_max              =   0.0000000000000E+00
(PID.TID 0000.0001) %MON advcfl_vvel_max              =   0.0000000000000E+00
(PID.TID 0000.0001) %MON advcfl_wvel_max              =   0.0000000000000E+00
(PID.TID 0000.0001) %MON advcfl_W_hf_max              =   0.0000000000000E+00
(PID.TID 0000.0001) %MON am_eta_mean                  =   0.0000000000000E+00
(PID.TID 0000.0001) %MON am_uZo_mean                  =   0.0000000000000E+00
(PID.TID 0000.0001) %MON am_tot_mean                  =   0.0000000000000E+00
(PID.TID 0000.0001) %MON pe_b_mean                    =   0.0000000000000E+00
(PID.TID 0000.0001) %MON ke_max                       =   0.0000000000000E+00
(PID.TID 0000.0001) %MON ke_mean                      =   0.0000000000000E+00
(PID.TID 0000.0001) %MON ke_vol                       =   5.0986421042785E+19
(PID.TID 0000.0001) %MON vort_r_min                   =   0.0000000000000E+00
(PID.TID 0000.0001) %MON vort_r_max                   =   0.0000000000000E+00
(PID.TID 0000.0001) %MON vort_a_mean                  =  -2.4513551737851E-21
(PID.TID 0000.0001) %MON vort_a_sd                    =   8.4202189509969E-05
(PID.TID 0000.0001) %MON vort_p_mean                  =  -2.4513551737851E-21
(PID.TID 0000.0001) %MON vort_p_sd                    =   8.4202189509969E-05
(PID.TID 0000.0001) %MON surfExpan_theta_mean         =   0.0000000000000E+00
(PID.TID 0000.0001) %MON surfExpan_salt_mean          =   0.0000000000000E+00
(PID.TID 0000.0001) %MON surfExpan_Heat_mean          =   0.0000000000000E+00
(PID.TID 0000.0001) %MON En_Budget_T2PE_mean          =   0.0000000000000E+00
(PID.TID 0000.0001) // =======================================================
(PID.TID 0000.0001) // End MONITOR dynamic field statistics
(PID.TID 0000.0001) // =======================================================
(PID.TID 0000.0001) SURFACE_FLUX_INIT: opening data.atm_gray
(PID.TID 0000.0001)  OPEN_COPY_DATA_FILE: opening file data.atm_gray
(PID.TID 0000.0001) // =======================================================
(PID.TID 0000.0001) // Parameter file "data.atm_gray"
(PID.TID 0000.0001) // =======================================================
(PID.TID 0000.0001) >
(PID.TID 0000.0001) > &atmosphere_nml
(PID.TID 0000.0001) >    turb = .TRUE.,
(PID.TID 0000.0001) >    ldry_convection = .false.,
(PID.TID 0000.0001) >    lwet_convection = .TRUE.,
(PID.TID 0000.0001) >    do_virtual = .false.,
(PID.TID 0000.0001) >    two_stream = .true.,
(PID.TID 0000.0001) >    mixed_layer_bc = .false.,
(PID.TID 0000.0001) >    roughness_heat = 0.05,
(PID.TID 0000.0001) >    roughness_moist = 0.05,
(PID.TID 0000.0001) >    roughness_mom = 0.05,
(PID.TID 0000.0001) > /
(PID.TID 0000.0001) >
(PID.TID 0000.0001) > &radiation_nml
(PID.TID 0000.0001) >  solar_constant= 1365.,
(PID.TID 0000.0001) >  del_sol=1.,
(PID.TID 0000.0001) ># ir_tau_eq=
(PID.TID 0000.0001) ># ir_tau_pole=
(PID.TID 0000.0001) >  atm_abs= 0.22,
(PID.TID 0000.0001) ># value that Ruth is using as default:
(PID.TID 0000.0001) ># atm_abs= 0.2486,
(PID.TID 0000.0001) ># sw_diff=
(PID.TID 0000.0001) ># linear_tau=
(PID.TID 0000.0001) ># del_sw=
(PID.TID 0000.0001) >  albedo_value=0.38,
(PID.TID 0000.0001) ># window=
(PID.TID 0000.0001) ># wv_exponent=
(PID.TID 0000.0001) ># solar_exponent=
(PID.TID 0000.0001) >  wv_exponent=0.,
(PID.TID 0000.0001) > /
(PID.TID 0000.0001) >
(PID.TID 0000.0001) > &lscale_cond_nml
(PID.TID 0000.0001) ># hc =
(PID.TID 0000.0001) ># do_evap=
(PID.TID 0000.0001) > /
(PID.TID 0000.0001) >
(PID.TID 0000.0001) > &dargan_bettsmiller_nml
(PID.TID 0000.0001) >#  tau_bm =,
(PID.TID 0000.0001) >#  rhbm =,
(PID.TID 0000.0001) >#  do_shallower=,
(PID.TID 0000.0001) >#  do_changeqref=,
(PID.TID 0000.0001) >#  do_envsat=,
(PID.TID 0000.0001) >#  do_taucape=,
(PID.TID 0000.0001) >#  capetaubm=,
(PID.TID 0000.0001) >#  tau_min =,
(PID.TID 0000.0001) >#  do_virtual=,
(PID.TID 0000.0001) >#  do_bm_shift=,
(PID.TID 0000.0001) > /
(PID.TID 0000.0001) >
(PID.TID 0000.0001) > &surface_flux_nml
(PID.TID 0000.0001) > /
(PID.TID 0000.0001) >
(PID.TID 0000.0001) > &vert_turb_driver_nml
(PID.TID 0000.0001) >#  do_shallow_conv, do_mellor_yamada,
(PID.TID 0000.0001) >#  gust_scheme, constant_gust, use_tau,
(PID.TID 0000.0001) >#  do_molecular_diffusion
(PID.TID 0000.0001) >  do_mellor_yamada=.FALSE.,
(PID.TID 0000.0001) > /
(PID.TID 0000.0001) >
(PID.TID 0000.0001) > &diffusivity_nml
(PID.TID 0000.0001) >#  fixed_depth, depth_0, frac_inner,
(PID.TID 0000.0001) >#  rich_crit_pbl, entr_ratio, parcel_buoy,
(PID.TID 0000.0001) >#  znom, free_atm_diff, free_atm_skyhi_diff,
(PID.TID 0000.0001) >#  pbl_mcm, rich_crit_diff, mix_len, rich_prandtl,
(PID.TID 0000.0001) >#  background_m, background_t, ampns, ampns_max,
(PID.TID 0000.0001) >#  do_virtual_non_mcm
(PID.TID 0000.0001) > /
(PID.TID 0000.0001) >
(PID.TID 0000.0001) > &monin_obukhov_nml
(PID.TID 0000.0001) > /
(PID.TID 0000.0001) >
(PID.TID 0000.0001) > &my25_turb_nml
(PID.TID 0000.0001) > /
(PID.TID 0000.0001) >
(PID.TID 0000.0001) > &shallow_conv_nml
(PID.TID 0000.0001) > /
(PID.TID 0000.0001) >
(PID.TID 0000.0001) > &mixed_layer_nml
(PID.TID 0000.0001) ># evaporation, qflux_amp, depth, qflux_width
(PID.TID 0000.0001) >  depth=10.,
(PID.TID 0000.0001) > /
(PID.TID 0000.0001) 
(PID.TID 0000.0001) SURFACE_FLUX_INIT: finished reading data.atm_gray
(PID.TID 0000.0001) MONIN_OBUKHOV_INIT: opening data.atm_gray
(PID.TID 0000.0001)  OPEN_COPY_DATA_FILE: opening file data.atm_gray
(PID.TID 0000.0001) // =======================================================
(PID.TID 0000.0001) // Parameter file "data.atm_gray"
(PID.TID 0000.0001) // =======================================================
(PID.TID 0000.0001) >
(PID.TID 0000.0001) > &atmosphere_nml
(PID.TID 0000.0001) >    turb = .TRUE.,
(PID.TID 0000.0001) >    ldry_convection = .false.,
(PID.TID 0000.0001) >    lwet_convection = .TRUE.,
(PID.TID 0000.0001) >    do_virtual = .false.,
(PID.TID 0000.0001) >    two_stream = .true.,
(PID.TID 0000.0001) >    mixed_layer_bc = .false.,
(PID.TID 0000.0001) >    roughness_heat = 0.05,
(PID.TID 0000.0001) >    roughness_moist = 0.05,
(PID.TID 0000.0001) >    roughness_mom = 0.05,
(PID.TID 0000.0001) > /
(PID.TID 0000.0001) >
(PID.TID 0000.0001) > &radiation_nml
(PID.TID 0000.0001) >  solar_constant= 1365.,
(PID.TID 0000.0001) >  del_sol=1.,
(PID.TID 0000.0001) ># ir_tau_eq=
(PID.TID 0000.0001) ># ir_tau_pole=
(PID.TID 0000.0001) >  atm_abs= 0.22,
(PID.TID 0000.0001) ># value that Ruth is using as default:
(PID.TID 0000.0001) ># atm_abs= 0.2486,
(PID.TID 0000.0001) ># sw_diff=
(PID.TID 0000.0001) ># linear_tau=
(PID.TID 0000.0001) ># del_sw=
(PID.TID 0000.0001) >  albedo_value=0.38,
(PID.TID 0000.0001) ># window=
(PID.TID 0000.0001) ># wv_exponent=
(PID.TID 0000.0001) ># solar_exponent=
(PID.TID 0000.0001) >  wv_exponent=0.,
(PID.TID 0000.0001) > /
(PID.TID 0000.0001) >
(PID.TID 0000.0001) > &lscale_cond_nml
(PID.TID 0000.0001) ># hc =
(PID.TID 0000.0001) ># do_evap=
(PID.TID 0000.0001) > /
(PID.TID 0000.0001) >
(PID.TID 0000.0001) > &dargan_bettsmiller_nml
(PID.TID 0000.0001) >#  tau_bm =,
(PID.TID 0000.0001) >#  rhbm =,
(PID.TID 0000.0001) >#  do_shallower=,
(PID.TID 0000.0001) >#  do_changeqref=,
(PID.TID 0000.0001) >#  do_envsat=,
(PID.TID 0000.0001) >#  do_taucape=,
(PID.TID 0000.0001) >#  capetaubm=,
(PID.TID 0000.0001) >#  tau_min =,
(PID.TID 0000.0001) >#  do_virtual=,
(PID.TID 0000.0001) >#  do_bm_shift=,
(PID.TID 0000.0001) > /
(PID.TID 0000.0001) >
(PID.TID 0000.0001) > &surface_flux_nml
(PID.TID 0000.0001) > /
(PID.TID 0000.0001) >
(PID.TID 0000.0001) > &vert_turb_driver_nml
(PID.TID 0000.0001) >#  do_shallow_conv, do_mellor_yamada,
(PID.TID 0000.0001) >#  gust_scheme, constant_gust, use_tau,
(PID.TID 0000.0001) >#  do_molecular_diffusion
(PID.TID 0000.0001) >  do_mellor_yamada=.FALSE.,
(PID.TID 0000.0001) > /
(PID.TID 0000.0001) >
(PID.TID 0000.0001) > &diffusivity_nml
(PID.TID 0000.0001) >#  fixed_depth, depth_0, frac_inner,
(PID.TID 0000.0001) >#  rich_crit_pbl, entr_ratio, parcel_buoy,
(PID.TID 0000.0001) >#  znom, free_atm_diff, free_atm_skyhi_diff,
(PID.TID 0000.0001) >#  pbl_mcm, rich_crit_diff, mix_len, rich_prandtl,
(PID.TID 0000.0001) >#  background_m, background_t, ampns, ampns_max,
(PID.TID 0000.0001) >#  do_virtual_non_mcm
(PID.TID 0000.0001) > /
(PID.TID 0000.0001) >
(PID.TID 0000.0001) > &monin_obukhov_nml
(PID.TID 0000.0001) > /
(PID.TID 0000.0001) >
(PID.TID 0000.0001) > &my25_turb_nml
(PID.TID 0000.0001) > /
(PID.TID 0000.0001) >
(PID.TID 0000.0001) > &shallow_conv_nml
(PID.TID 0000.0001) > /
(PID.TID 0000.0001) >
(PID.TID 0000.0001) > &mixed_layer_nml
(PID.TID 0000.0001) ># evaporation, qflux_amp, depth, qflux_width
(PID.TID 0000.0001) >  depth=10.,
(PID.TID 0000.0001) > /
(PID.TID 0000.0001) 
(PID.TID 0000.0001) MONIN_OBUKHOV_INIT: finished reading data.atm_gray
(PID.TID 0000.0001) DIFFUSIVITY_INIT: opening data.atm_gray
(PID.TID 0000.0001)  OPEN_COPY_DATA_FILE: opening file data.atm_gray
(PID.TID 0000.0001) // =======================================================
(PID.TID 0000.0001) // Parameter file "data.atm_gray"
(PID.TID 0000.0001) // =======================================================
(PID.TID 0000.0001) >
(PID.TID 0000.0001) > &atmosphere_nml
(PID.TID 0000.0001) >    turb = .TRUE.,
(PID.TID 0000.0001) >    ldry_convection = .false.,
(PID.TID 0000.0001) >    lwet_convection = .TRUE.,
(PID.TID 0000.0001) >    do_virtual = .false.,
(PID.TID 0000.0001) >    two_stream = .true.,
(PID.TID 0000.0001) >    mixed_layer_bc = .false.,
(PID.TID 0000.0001) >    roughness_heat = 0.05,
(PID.TID 0000.0001) >    roughness_moist = 0.05,
(PID.TID 0000.0001) >    roughness_mom = 0.05,
(PID.TID 0000.0001) > /
(PID.TID 0000.0001) >
(PID.TID 0000.0001) > &radiation_nml
(PID.TID 0000.0001) >  solar_constant= 1365.,
(PID.TID 0000.0001) >  del_sol=1.,
(PID.TID 0000.0001) ># ir_tau_eq=
(PID.TID 0000.0001) ># ir_tau_pole=
(PID.TID 0000.0001) >  atm_abs= 0.22,
(PID.TID 0000.0001) ># value that Ruth is using as default:
(PID.TID 0000.0001) ># atm_abs= 0.2486,
(PID.TID 0000.0001) ># sw_diff=
(PID.TID 0000.0001) ># linear_tau=
(PID.TID 0000.0001) ># del_sw=
(PID.TID 0000.0001) >  albedo_value=0.38,
(PID.TID 0000.0001) ># window=
(PID.TID 0000.0001) ># wv_exponent=
(PID.TID 0000.0001) ># solar_exponent=
(PID.TID 0000.0001) >  wv_exponent=0.,
(PID.TID 0000.0001) > /
(PID.TID 0000.0001) >
(PID.TID 0000.0001) > &lscale_cond_nml
(PID.TID 0000.0001) ># hc =
(PID.TID 0000.0001) ># do_evap=
(PID.TID 0000.0001) > /
(PID.TID 0000.0001) >
(PID.TID 0000.0001) > &dargan_bettsmiller_nml
(PID.TID 0000.0001) >#  tau_bm =,
(PID.TID 0000.0001) >#  rhbm =,
(PID.TID 0000.0001) >#  do_shallower=,
(PID.TID 0000.0001) >#  do_changeqref=,
(PID.TID 0000.0001) >#  do_envsat=,
(PID.TID 0000.0001) >#  do_taucape=,
(PID.TID 0000.0001) >#  capetaubm=,
(PID.TID 0000.0001) >#  tau_min =,
(PID.TID 0000.0001) >#  do_virtual=,
(PID.TID 0000.0001) >#  do_bm_shift=,
(PID.TID 0000.0001) > /
(PID.TID 0000.0001) >
(PID.TID 0000.0001) > &surface_flux_nml
(PID.TID 0000.0001) > /
(PID.TID 0000.0001) >
(PID.TID 0000.0001) > &vert_turb_driver_nml
(PID.TID 0000.0001) >#  do_shallow_conv, do_mellor_yamada,
(PID.TID 0000.0001) >#  gust_scheme, constant_gust, use_tau,
(PID.TID 0000.0001) >#  do_molecular_diffusion
(PID.TID 0000.0001) >  do_mellor_yamada=.FALSE.,
(PID.TID 0000.0001) > /
(PID.TID 0000.0001) >
(PID.TID 0000.0001) > &diffusivity_nml
(PID.TID 0000.0001) >#  fixed_depth, depth_0, frac_inner,
(PID.TID 0000.0001) >#  rich_crit_pbl, entr_ratio, parcel_buoy,
(PID.TID 0000.0001) >#  znom, free_atm_diff, free_atm_skyhi_diff,
(PID.TID 0000.0001) >#  pbl_mcm, rich_crit_diff, mix_len, rich_prandtl,
(PID.TID 0000.0001) >#  background_m, background_t, ampns, ampns_max,
(PID.TID 0000.0001) >#  do_virtual_non_mcm
(PID.TID 0000.0001) > /
(PID.TID 0000.0001) >
(PID.TID 0000.0001) > &monin_obukhov_nml
(PID.TID 0000.0001) > /
(PID.TID 0000.0001) >
(PID.TID 0000.0001) > &my25_turb_nml
(PID.TID 0000.0001) > /
(PID.TID 0000.0001) >
(PID.TID 0000.0001) > &shallow_conv_nml
(PID.TID 0000.0001) > /
(PID.TID 0000.0001) >
(PID.TID 0000.0001) > &mixed_layer_nml
(PID.TID 0000.0001) ># evaporation, qflux_amp, depth, qflux_width
(PID.TID 0000.0001) >  depth=10.,
(PID.TID 0000.0001) > /
(PID.TID 0000.0001) 
(PID.TID 0000.0001) DIFFUSIVITY_INIT: finished reading data.atm_gray
(PID.TID 0000.0001) SOLVE_FOR_PRESSURE: putPmEinXvector =    F
 cg2d: Sum(rhs),rhsMax =  -2.11002770811319E-10  1.15643245709389E+02
(PID.TID 0000.0001)      cg2d_init_res =   3.76284312959006E+03
(PID.TID 0000.0001)      cg2d_iters(min,last) =      -1      13
(PID.TID 0000.0001)      cg2d_last_res =   1.22550974501763E-11
(PID.TID 0000.0001) // =======================================================
(PID.TID 0000.0001) // Begin MONITOR dynamic field statistics
(PID.TID 0000.0001) // =======================================================
(PID.TID 0000.0001) %MON time_tsnumber                =                     1
(PID.TID 0000.0001) %MON time_secondsf                =   3.8400000000000E+02
(PID.TID 0000.0001) %MON dynstat_eta_max              =   1.6072300803478E+01
(PID.TID 0000.0001) %MON dynstat_eta_min              =  -1.0007350019732E+01
(PID.TID 0000.0001) %MON dynstat_eta_mean             =  -4.0167557520491E-15
(PID.TID 0000.0001) %MON dynstat_eta_sd               =   8.0525325820579E+00
(PID.TID 0000.0001) %MON dynstat_eta_del2             =   4.0589517037011E-02
(PID.TID 0000.0001) %MON dynstat_uvel_max             =   1.3879160049045E+00
(PID.TID 0000.0001) %MON dynstat_uvel_min             =  -1.3879160049045E+00
(PID.TID 0000.0001) %MON dynstat_uvel_mean            =   3.1380904312883E-18
(PID.TID 0000.0001) %MON dynstat_uvel_sd              =   4.4928548724312E-01
(PID.TID 0000.0001) %MON dynstat_uvel_del2            =   1.1479190310264E-04
(PID.TID 0000.0001) %MON dynstat_vvel_max             =   1.3879160049045E+00
(PID.TID 0000.0001) %MON dynstat_vvel_min             =  -1.3879160049045E+00
(PID.TID 0000.0001) %MON dynstat_vvel_mean            =  -5.0209446900613E-18
(PID.TID 0000.0001) %MON dynstat_vvel_sd              =   4.4928548724312E-01
(PID.TID 0000.0001) %MON dynstat_vvel_del2            =   1.1479190310264E-04
(PID.TID 0000.0001) %MON dynstat_wvel_max             =   1.8271960395298E-02
(PID.TID 0000.0001) %MON dynstat_wvel_min             =  -1.5352764779894E-02
(PID.TID 0000.0001) %MON dynstat_wvel_mean            =  -4.4657791531919E-17
(PID.TID 0000.0001) %MON dynstat_wvel_sd              =   4.5244066825271E-03
(PID.TID 0000.0001) %MON dynstat_wvel_del2            =   9.2715755896152E-06
(PID.TID 0000.0001) %MON dynstat_theta_max            =   1.1536229297787E+03
(PID.TID 0000.0001) %MON dynstat_theta_min            =   2.5513609102706E+02
(PID.TID 0000.0001) %MON dynstat_theta_mean           =   3.2787463234653E+02
(PID.TID 0000.0001) %MON dynstat_theta_sd             =   9.0372376791357E+01
(PID.TID 0000.0001) %MON dynstat_theta_del2           =   5.5124350682072E-04
(PID.TID 0000.0001) %MON dynstat_salt_max             =   2.0315231067193E-02
(PID.TID 0000.0001) %MON dynstat_salt_min             =   0.0000000000000E+00
(PID.TID 0000.0001) %MON dynstat_salt_mean            =   1.7965022629355E-03
(PID.TID 0000.0001) %MON dynstat_salt_sd              =   3.7980706593222E-03
(PID.TID 0000.0001) %MON dynstat_salt_del2            =   1.4288173076807E-07
(PID.TID 0000.0001) %MON advcfl_uvel_max              =   3.9066494963582E-03
(PID.TID 0000.0001) %MON advcfl_vvel_max              =   3.9066494963582E-03
(PID.TID 0000.0001) %MON advcfl_wvel_max              =   1.4186144692730E-03
(PID.TID 0000.0001) %MON advcfl_W_hf_max              =   1.5631685910171E-03
(PID.TID 0000.0001) %MON am_eta_mean                  =   0.0000000000000E+00
(PID.TID 0000.0001) %MON am_uZo_mean                  =   5.5454182268289E-08
(PID.TID 0000.0001) %MON am_tot_mean                  =   5.5454182268289E-08
(PID.TID 0000.0001) %MON pe_b_mean                    =   2.7462913984284E-04
(PID.TID 0000.0001) %MON ke_max                       =   9.7091107390673E-01
(PID.TID 0000.0001) %MON ke_mean                      =   2.0185744904729E-01
(PID.TID 0000.0001) %MON ke_vol                       =   5.0986421042785E+19
(PID.TID 0000.0001) %MON vort_r_min                   =  -3.5865979858378E-08
(PID.TID 0000.0001) %MON vort_r_max                   =   3.5865979858378E-08
(PID.TID 0000.0001) %MON vort_a_mean                  =   9.8054206951406E-21
(PID.TID 0000.0001) %MON vort_a_sd                    =   8.4202189513404E-05
(PID.TID 0000.0001) %MON vort_p_mean                  =   9.8054206951406E-21
(PID.TID 0000.0001) %MON vort_p_sd                    =   8.4202189513404E-05
(PID.TID 0000.0001) %MON surfExpan_theta_mean         =  -3.0033418398592E-01
(PID.TID 0000.0001) %MON surfExpan_salt_mean          =  -2.7791608985939E-05
(PID.TID 0000.0001) %MON surfExpan_Heat_mean          =  -2.6337244647196E+01
(PID.TID 0000.0001) %MON En_Budget_T2PE_mean          =   3.0560462859153E+00
(PID.TID 0000.0001) // =======================================================
(PID.TID 0000.0001) // End MONITOR dynamic field statistics
(PID.TID 0000.0001) // =======================================================
 cg2d: Sum(rhs),rhsMax =   2.03726813197136E-10  3.13338817836800E+02
(PID.TID 0000.0001)      cg2d_init_res =   7.45407217938040E+03
(PID.TID 0000.0001)      cg2d_iters(min,last) =      -1      13
(PID.TID 0000.0001)      cg2d_last_res =   2.05703364819552E-11
(PID.TID 0000.0001) // =======================================================
(PID.TID 0000.0001) // Begin MONITOR dynamic field statistics
(PID.TID 0000.0001) // =======================================================
(PID.TID 0000.0001) %MON time_tsnumber                =                     2
(PID.TID 0000.0001) %MON time_secondsf                =   7.6800000000000E+02
(PID.TID 0000.0001) %MON dynstat_eta_max              =   4.5660524965391E+01
(PID.TID 0000.0001) %MON dynstat_eta_min              =  -2.9964714548979E+01
(PID.TID 0000.0001) %MON dynstat_eta_mean             =   1.6067023008196E-14
(PID.TID 0000.0001) %MON dynstat_eta_sd               =   2.4051317205419E+01
(PID.TID 0000.0001) %MON dynstat_eta_del2             =   9.1984053515891E-02
(PID.TID 0000.0001) %MON dynstat_uvel_max             =   2.7674965090021E+00
(PID.TID 0000.0001) %MON dynstat_uvel_min             =  -2.7674965090021E+00
(PID.TID 0000.0001) %MON dynstat_uvel_mean            =   5.8029449181090E-03
(PID.TID 0000.0001) %MON dynstat_uvel_sd              =   8.9707637298122E-01
(PID.TID 0000.0001) %MON dynstat_uvel_del2            =   2.2049471095649E-04
(PID.TID 0000.0001) %MON dynstat_vvel_max             =   2.7674965090021E+00
(PID.TID 0000.0001) %MON dynstat_vvel_min             =  -2.7674965090021E+00
(PID.TID 0000.0001) %MON dynstat_vvel_mean            =   5.8029449181090E-03
(PID.TID 0000.0001) %MON dynstat_vvel_sd              =   8.9707637298122E-01
(PID.TID 0000.0001) %MON dynstat_vvel_del2            =   2.2049471095649E-04
(PID.TID 0000.0001) %MON dynstat_wvel_max             =   3.4971793236091E-02
(PID.TID 0000.0001) %MON dynstat_wvel_min             =  -3.1694053137373E-02
(PID.TID 0000.0001) %MON dynstat_wvel_mean            =  -4.0569402166320E-17
(PID.TID 0000.0001) %MON dynstat_wvel_sd              =   8.9937449757486E-03
(PID.TID 0000.0001) %MON dynstat_wvel_del2            =   1.7061963986405E-05
(PID.TID 0000.0001) %MON dynstat_theta_max            =   1.1537045456720E+03
(PID.TID 0000.0001) %MON dynstat_theta_min            =   2.5524230792836E+02
(PID.TID 0000.0001) %MON dynstat_theta_mean           =   3.2787350009109E+02
(PID.TID 0000.0001) %MON dynstat_theta_sd             =   9.0373163154205E+01
(PID.TID 0000.0001) %MON dynstat_theta_del2           =   5.5352063522851E-04
(PID.TID 0000.0001) %MON dynstat_salt_max             =   2.0315300128208E-02
(PID.TID 0000.0001) %MON dynstat_salt_min             =   0.0000000000000E+00
(PID.TID 0000.0001) %MON dynstat_salt_mean            =   1.7975723562082E-03
(PID.TID 0000.0001) %MON dynstat_salt_sd              =   3.7977445530670E-03
(PID.TID 0000.0001) %MON dynstat_salt_del2            =   1.4843613566820E-07
(PID.TID 0000.0001) %MON advcfl_uvel_max              =   8.0435423719553E-03
(PID.TID 0000.0001) %MON advcfl_vvel_max              =   8.0435423719553E-03
(PID.TID 0000.0001) %MON advcfl_wvel_max              =   2.5614345841767E-03
(PID.TID 0000.0001) %MON advcfl_W_hf_max              =   2.8222457724186E-03
(PID.TID 0000.0001) %MON am_eta_mean                  =  -7.0921273789247E+08
(PID.TID 0000.0001) %MON am_uZo_mean                  =   7.0951568000330E+08
(PID.TID 0000.0001) %MON am_tot_mean                  =   3.0294211083448E+05
(PID.TID 0000.0001) %MON pe_b_mean                    =   2.4499621080064E-03
(PID.TID 0000.0001) %MON ke_max                       =   3.8769140204189E+00
(PID.TID 0000.0001) %MON ke_mean                      =   8.0477969313087E-01
(PID.TID 0000.0001) %MON ke_vol                       =   5.0986421042785E+19
(PID.TID 0000.0001) %MON vort_r_min                   =  -1.2331586094887E-07
(PID.TID 0000.0001) %MON vort_r_max                   =   1.2331586094887E-07
(PID.TID 0000.0001) %MON vort_a_mean                  =  -1.7159486216496E-20
(PID.TID 0000.0001) %MON vort_a_sd                    =   8.4206938937492E-05
(PID.TID 0000.0001) %MON vort_p_mean                  =  -1.7159486143794E-20
(PID.TID 0000.0001) %MON vort_p_sd                    =   8.4203970864961E-05
(PID.TID 0000.0001) %MON surfExpan_theta_mean         =  -5.9847845813451E-01
(PID.TID 0000.0001) %MON surfExpan_salt_mean          =  -5.5384444233764E-05
(PID.TID 0000.0001) %MON surfExpan_Heat_mean          =  -5.2485347992678E+01
(PID.TID 0000.0001) %MON En_Budget_T2PE_mean          =   6.1013917810802E+00
(PID.TID 0000.0001) // =======================================================
(PID.TID 0000.0001) // End MONITOR dynamic field statistics
(PID.TID 0000.0001) // =======================================================
 cg2d: Sum(rhs),rhsMax =  -4.65661287307739E-10  6.02659548398251E+02
(PID.TID 0000.0001)      cg2d_init_res =   1.10942331024993E+04
(PID.TID 0000.0001)      cg2d_iters(min,last) =      -1      13
(PID.TID 0000.0001)      cg2d_last_res =   2.42066750333697E-11
(PID.TID 0000.0001) // =======================================================
(PID.TID 0000.0001) // Begin MONITOR dynamic field statistics
(PID.TID 0000.0001) // =======================================================
(PID.TID 0000.0001) %MON time_tsnumber                =                     3
(PID.TID 0000.0001) %MON time_secondsf                =   1.1520000000000E+03
(PID.TID 0000.0001) %MON dynstat_eta_max              =   8.6681448072961E+01
(PID.TID 0000.0001) %MON dynstat_eta_min              =  -5.9780588523246E+01
(PID.TID 0000.0001) %MON dynstat_eta_mean             =   2.6778371680327E-15
(PID.TID 0000.0001) %MON dynstat_eta_sd               =   4.7880774914094E+01
(PID.TID 0000.0001) %MON dynstat_eta_del2             =   1.3760140193341E-01
(PID.TID 0000.0001) %MON dynstat_uvel_max             =   4.1330730460820E+00
(PID.TID 0000.0001) %MON dynstat_uvel_min             =  -4.1330730460823E+00
(PID.TID 0000.0001) %MON dynstat_uvel_mean            =   1.5199361148505E-02
(PID.TID 0000.0001) %MON dynstat_uvel_sd              =   1.3418283305945E+00
(PID.TID 0000.0001) %MON dynstat_uvel_del2            =   3.1690060397672E-04
(PID.TID 0000.0001) %MON dynstat_vvel_max             =   4.1330730493142E+00
(PID.TID 0000.0001) %MON dynstat_vvel_min             =  -4.1330730429130E+00
(PID.TID 0000.0001) %MON dynstat_vvel_mean            =   1.5199361175402E-02
(PID.TID 0000.0001) %MON dynstat_vvel_sd              =   1.3418283305862E+00
(PID.TID 0000.0001) %MON dynstat_vvel_del2            =   3.1690068553267E-04
(PID.TID 0000.0001) %MON dynstat_wvel_max             =   4.9248407622891E-02
(PID.TID 0000.0001) %MON dynstat_wvel_min             =  -4.6258917006509E-02
(PID.TID 0000.0001) %MON dynstat_wvel_mean            =   2.2014404276298E-17
(PID.TID 0000.0001) %MON dynstat_wvel_sd              =   1.3366188667376E-02
(PID.TID 0000.0001) %MON dynstat_wvel_del2            =   2.2630333136507E-05
(PID.TID 0000.0001) %MON dynstat_theta_max            =   1.1537734373416E+03
(PID.TID 0000.0001) %MON dynstat_theta_min            =   2.5540172177262E+02
(PID.TID 0000.0001) %MON dynstat_theta_mean           =   3.2787350204073E+02
(PID.TID 0000.0001) %MON dynstat_theta_sd             =   9.0373104210984E+01
(PID.TID 0000.0001) %MON dynstat_theta_del2           =   5.5750034694663E-04
(PID.TID 0000.0001) %MON dynstat_salt_max             =   2.0315369443770E-02
(PID.TID 0000.0001) %MON dynstat_salt_min             =   0.0000000000000E+00
(PID.TID 0000.0001) %MON dynstat_salt_mean            =   1.7982424664385E-03
(PID.TID 0000.0001) %MON dynstat_salt_sd              =   3.7976171150776E-03
(PID.TID 0000.0001) %MON dynstat_salt_del2            =   1.5323784215248E-07
(PID.TID 0000.0001) %MON advcfl_uvel_max              =   1.2231274626117E-02
(PID.TID 0000.0001) %MON advcfl_vvel_max              =   1.2231275924965E-02
(PID.TID 0000.0001) %MON advcfl_wvel_max              =   3.3088615946198E-03
(PID.TID 0000.0001) %MON advcfl_W_hf_max              =   3.6454156256765E-03
(PID.TID 0000.0001) %MON am_eta_mean                  =  -2.1241287361806E+09
(PID.TID 0000.0001) %MON am_uZo_mean                  =   2.1246783000697E+09
(PID.TID 0000.0001) %MON am_tot_mean                  =   5.4956388902116E+05
(PID.TID 0000.0001) %MON pe_b_mean                    =   9.7096589628752E-03
(PID.TID 0000.0001) %MON ke_max                       =   8.6661094484360E+00
(PID.TID 0000.0001) %MON ke_mean                      =   1.8007342893547E+00
(PID.TID 0000.0001) %MON ke_vol                       =   5.0986421042784E+19
(PID.TID 0000.0001) %MON vort_r_min                   =  -2.5128000409780E-07
(PID.TID 0000.0001) %MON vort_r_max                   =   2.5128000364504E-07
(PID.TID 0000.0001) %MON vort_a_mean                  =   1.7159486216496E-20
(PID.TID 0000.0001) %MON vort_a_sd                    =   8.4214636112302E-05
(PID.TID 0000.0001) %MON vort_p_mean                  =   1.7159485984892E-20
(PID.TID 0000.0001) %MON vort_p_sd                    =   8.4205744165176E-05
(PID.TID 0000.0001) %MON surfExpan_theta_mean         =  -8.9267579214926E-01
(PID.TID 0000.0001) %MON surfExpan_salt_mean          =  -8.2699626737053E-05
(PID.TID 0000.0001) %MON surfExpan_Heat_mean          =  -7.8294433437658E+01
(PID.TID 0000.0001) %MON En_Budget_T2PE_mean          =   9.1224245364939E+00
(PID.TID 0000.0001) // =======================================================
(PID.TID 0000.0001) // End MONITOR dynamic field statistics
(PID.TID 0000.0001) // =======================================================
 cg2d: Sum(rhs),rhsMax =  -9.31322574615479E-10  9.97747935491298E+02
(PID.TID 0000.0001)      cg2d_init_res =   1.46919884243292E+04
(PID.TID 0000.0001)      cg2d_iters(min,last) =      -1      13
(PID.TID 0000.0001)      cg2d_last_res =   2.65868454374651E-11
(PID.TID 0000.0001) // =======================================================
(PID.TID 0000.0001) // Begin MONITOR dynamic field statistics
(PID.TID 0000.0001) // =======================================================
(PID.TID 0000.0001) %MON time_tsnumber                =                     4
(PID.TID 0000.0001) %MON time_secondsf                =   1.5360000000000E+03
(PID.TID 0000.0001) %MON dynstat_eta_max              =   1.4145304105805E+02
(PID.TID 0000.0001) %MON dynstat_eta_min              =  -9.9332661492137E+01
(PID.TID 0000.0001) %MON dynstat_eta_mean             =   2.6778371680327E-15
(PID.TID 0000.0001) %MON dynstat_eta_sd               =   7.9434602244301E+01
(PID.TID 0000.0001) %MON dynstat_eta_del2             =   1.7498479758152E-01
(PID.TID 0000.0001) %MON dynstat_uvel_max             =   5.4868586160088E+00
(PID.TID 0000.0001) %MON dynstat_uvel_min             =  -5.4868586160306E+00
(PID.TID 0000.0001) %MON dynstat_uvel_mean            =   2.8140139824166E-02
(PID.TID 0000.0001) %MON dynstat_uvel_sd              =   1.7828933510179E+00
(PID.TID 0000.0001) %MON dynstat_uvel_del2            =   4.0670936973450E-04
(PID.TID 0000.0001) %MON dynstat_vvel_max             =   5.4868586359870E+00
(PID.TID 0000.0001) %MON dynstat_vvel_min             =  -5.4868585971503E+00
(PID.TID 0000.0001) %MON dynstat_vvel_mean            =   2.8140139989906E-02
(PID.TID 0000.0001) %MON dynstat_vvel_sd              =   1.7828933509110E+00
(PID.TID 0000.0001) %MON dynstat_vvel_del2            =   4.0670962973812E-04
(PID.TID 0000.0001) %MON dynstat_wvel_max             =   6.1317468204191E-02
(PID.TID 0000.0001) %MON dynstat_wvel_min             =  -6.2139196480800E-02
(PID.TID 0000.0001) %MON dynstat_wvel_mean            =  -3.1449148966140E-17
(PID.TID 0000.0001) %MON dynstat_wvel_sd              =   1.7657718386778E-02
(PID.TID 0000.0001) %MON dynstat_wvel_del2            =   2.7091895685052E-05
(PID.TID 0000.0001) %MON dynstat_theta_max            =   1.1538424538674E+03
(PID.TID 0000.0001) %MON dynstat_theta_min            =   2.5555890456462E+02
(PID.TID 0000.0001) %MON dynstat_theta_mean           =   3.2787405322966E+02
(PID.TID 0000.0001) %MON dynstat_theta_sd             =   9.0372673330434E+01
(PID.TID 0000.0001) %MON dynstat_theta_del2           =   5.6040225461548E-04
(PID.TID 0000.0001) %MON dynstat_salt_max             =   2.0315439076155E-02
(PID.TID 0000.0001) %MON dynstat_salt_min             =   0.0000000000000E+00
(PID.TID 0000.0001) %MON dynstat_salt_mean            =   1.7986970762307E-03
(PID.TID 0000.0001) %MON dynstat_salt_sd              =   3.7975911146889E-03
(PID.TID 0000.0001) %MON dynstat_salt_del2            =   1.5880119283818E-07
(PID.TID 0000.0001) %MON advcfl_uvel_max              =   1.6381532695090E-02
(PID.TID 0000.0001) %MON advcfl_vvel_max              =   1.6381531974155E-02
(PID.TID 0000.0001) %MON advcfl_wvel_max              =   3.9576621408555E-03
(PID.TID 0000.0001) %MON advcfl_W_hf_max              =   4.3572236086978E-03
(PID.TID 0000.0001) %MON am_eta_mean                  =  -4.2375986505537E+09
(PID.TID 0000.0001) %MON am_uZo_mean                  =   4.2381346441291E+09
(PID.TID 0000.0001) %MON am_tot_mean                  =   5.3599357544470E+05
(PID.TID 0000.0001) %MON pe_b_mean                    =   2.6723976775143E-02
(PID.TID 0000.0001) %MON ke_max                       =   1.5257361891250E+01
(PID.TID 0000.0001) %MON ke_mean                      =   3.1795005683873E+00
(PID.TID 0000.0001) %MON ke_vol                       =   5.0986421042785E+19
(PID.TID 0000.0001) %MON vort_r_min                   =  -4.1770693439081E-07
(PID.TID 0000.0001) %MON vort_r_max                   =   4.1770694617956E-07
(PID.TID 0000.0001) %MON vort_a_mean                  =   1.4462995525332E-19
(PID.TID 0000.0001) %MON vort_a_sd                    =   8.4225246918708E-05
(PID.TID 0000.0001) %MON vort_p_mean                  =   1.4462995115213E-19
(PID.TID 0000.0001) %MON vort_p_sd                    =   8.4207501552295E-05
(PID.TID 0000.0001) %MON surfExpan_theta_mean         =  -1.1819694365494E+00
(PID.TID 0000.0001) %MON surfExpan_salt_mean          =  -1.0967942345575E-04
(PID.TID 0000.0001) %MON surfExpan_Heat_mean          =  -1.0368438835348E+02
(PID.TID 0000.0001) %MON En_Budget_T2PE_mean          =   1.2114212891617E+01
(PID.TID 0000.0001) // =======================================================
(PID.TID 0000.0001) // End MONITOR dynamic field statistics
(PID.TID 0000.0001) // =======================================================
 cg2d: Sum(rhs),rhsMax =   4.65661287307739E-10  1.48553030322469E+03
(PID.TID 0000.0001)      cg2d_init_res =   1.82391068936753E+04
(PID.TID 0000.0001)      cg2d_iters(min,last) =      -1      13
(PID.TID 0000.0001)      cg2d_last_res =   3.22186360518943E-11
(PID.TID 0000.0001) // =======================================================
(PID.TID 0000.0001) // Begin MONITOR dynamic field statistics
(PID.TID 0000.0001) // =======================================================
(PID.TID 0000.0001) %MON time_tsnumber                =                     5
(PID.TID 0000.0001) %MON time_secondsf                =   1.9200000000000E+03
(PID.TID 0000.0001) %MON dynstat_eta_max              =   2.1061193054417E+02
(PID.TID 0000.0001) %MON dynstat_eta_min              =  -1.4846834944100E+02
(PID.TID 0000.0001) %MON dynstat_eta_mean             =  -2.4100534512294E-14
(PID.TID 0000.0001) %MON dynstat_eta_sd               =   1.1859729446883E+02
(PID.TID 0000.0001) %MON dynstat_eta_del2             =   2.0667710958731E-01
(PID.TID 0000.0001) %MON dynstat_uvel_max             =   6.8273821097244E+00
(PID.TID 0000.0001) %MON dynstat_uvel_min             =  -6.8273821098383E+00
(PID.TID 0000.0001) %MON dynstat_uvel_mean            =   4.4568235204304E-02
(PID.TID 0000.0001) %MON dynstat_uvel_sd              =   2.2194950088673E+00
(PID.TID 0000.0001) %MON dynstat_uvel_del2            =   4.9441219704165E-04
(PID.TID 0000.0001) %MON dynstat_vvel_max             =   6.8273821751218E+00
(PID.TID 0000.0001) %MON dynstat_vvel_min             =  -6.8273820483400E+00
(PID.TID 0000.0001) %MON dynstat_vvel_mean            =   4.4568235763465E-02
(PID.TID 0000.0001) %MON dynstat_vvel_sd              =   2.2194950084207E+00
(PID.TID 0000.0001) %MON dynstat_vvel_del2            =   4.9441265542494E-04
(PID.TID 0000.0001) %MON dynstat_wvel_max             =   7.1580664977171E-02
(PID.TID 0000.0001) %MON dynstat_wvel_min             =  -7.8171294810843E-02
(PID.TID 0000.0001) %MON dynstat_wvel_mean            =  -8.1767787311963E-18
(PID.TID 0000.0001) %MON dynstat_wvel_sd              =   2.1883981312950E-02
(PID.TID 0000.0001) %MON dynstat_wvel_del2            =   3.0759315442291E-05
(PID.TID 0000.0001) %MON dynstat_theta_max            =   1.1539003974235E+03
(PID.TID 0000.0001) %MON dynstat_theta_min            =   2.5570969828223E+02
(PID.TID 0000.0001) %MON dynstat_theta_mean           =   3.2787479926773E+02
(PID.TID 0000.0001) %MON dynstat_theta_sd             =   9.0372143286032E+01
(PID.TID 0000.0001) %MON dynstat_theta_del2           =   5.6271092934094E-04
(PID.TID 0000.0001) %MON dynstat_salt_max             =   2.0315509067769E-02
(PID.TID 0000.0001) %MON dynstat_salt_min             =   0.0000000000000E+00
(PID.TID 0000.0001) %MON dynstat_salt_mean            =   1.7990522454063E-03
(PID.TID 0000.0001) %MON dynstat_salt_sd              =   3.7976109448164E-03
(PID.TID 0000.0001) %MON dynstat_salt_del2            =   1.6360369636865E-07
(PID.TID 0000.0001) %MON advcfl_uvel_max              =   2.0564277603671E-02
(PID.TID 0000.0001) %MON advcfl_vvel_max              =   2.0564274127148E-02
(PID.TID 0000.0001) %MON advcfl_wvel_max              =   4.5690385022513E-03
(PID.TID 0000.0001) %MON advcfl_W_hf_max              =   5.0285815526163E-03
(PID.TID 0000.0001) %MON am_eta_mean                  =  -7.0405452094597E+09
(PID.TID 0000.0001) %MON am_uZo_mean                  =   7.0406103612604E+09
(PID.TID 0000.0001) %MON am_tot_mean                  =   6.5151800689697E+04
(PID.TID 0000.0001) %MON pe_b_mean                    =   5.9570493586891E-02
(PID.TID 0000.0001) %MON ke_max                       =   2.3621458890911E+01
(PID.TID 0000.0001) %MON ke_mean                      =   4.9281444210098E+00
(PID.TID 0000.0001) %MON ke_vol                       =   5.0986421042785E+19
(PID.TID 0000.0001) %MON vort_r_min                   =  -6.2171252151412E-07
(PID.TID 0000.0001) %MON vort_r_max                   =   6.2171259991674E-07
(PID.TID 0000.0001) %MON vort_a_mean                  =   2.6229500359501E-19
(PID.TID 0000.0001) %MON vort_a_sd                    =   8.4238735594088E-05
(PID.TID 0000.0001) %MON vort_p_mean                  =   2.6229499083849E-19
(PID.TID 0000.0001) %MON vort_p_sd                    =   8.4209240456058E-05
(PID.TID 0000.0001) %MON surfExpan_theta_mean         =  -1.4653470230665E+00
(PID.TID 0000.0001) %MON surfExpan_salt_mean          =  -1.3624724321272E-04
(PID.TID 0000.0001) %MON surfExpan_Heat_mean          =  -1.2857006050769E+02
(PID.TID 0000.0001) %MON En_Budget_T2PE_mean          =   1.5071301189091E+01
(PID.TID 0000.0001) // =======================================================
(PID.TID 0000.0001) // End MONITOR dynamic field statistics
(PID.TID 0000.0001) // =======================================================
 cg2d: Sum(rhs),rhsMax =  -2.79396772384644E-09  2.06281948148246E+03
(PID.TID 0000.0001)      cg2d_init_res =   2.17207481474742E+04
(PID.TID 0000.0001)      cg2d_iters(min,last) =      -1      13
(PID.TID 0000.0001)      cg2d_last_res =   3.63283800077776E-11
(PID.TID 0000.0001) // =======================================================
(PID.TID 0000.0001) // Begin MONITOR dynamic field statistics
(PID.TID 0000.0001) // =======================================================
(PID.TID 0000.0001) %MON time_tsnumber                =                     6
(PID.TID 0000.0001) %MON time_secondsf                =   2.3040000000000E+03
(PID.TID 0000.0001) %MON dynstat_eta_max              =   2.9246492880560E+02
(PID.TID 0000.0001) %MON dynstat_eta_min              =  -2.0700587895665E+02
(PID.TID 0000.0001) %MON dynstat_eta_mean             =   1.0711348672131E-14
(PID.TID 0000.0001) %MON dynstat_eta_sd               =   1.6523181982075E+02
(PID.TID 0000.0001) %MON dynstat_eta_del2             =   2.3669205086415E-01
(PID.TID 0000.0001) %MON dynstat_uvel_max             =   8.1533428798090E+00
(PID.TID 0000.0001) %MON dynstat_uvel_min             =  -8.1533428804550E+00
(PID.TID 0000.0001) %MON dynstat_uvel_mean            =   6.4413642058620E-02
(PID.TID 0000.0001) %MON dynstat_uvel_sd              =   2.6508927660954E+00
(PID.TID 0000.0001) %MON dynstat_uvel_del2            =   5.7961684829130E-04
(PID.TID 0000.0001) %MON dynstat_vvel_max             =   8.1533430148279E+00
(PID.TID 0000.0001) %MON dynstat_vvel_min             =  -8.1533427610566E+00
(PID.TID 0000.0001) %MON dynstat_vvel_mean            =   6.4413643470683E-02
(PID.TID 0000.0001) %MON dynstat_vvel_sd              =   2.6508927648881E+00
(PID.TID 0000.0001) %MON dynstat_vvel_del2            =   5.7961747990793E-04
(PID.TID 0000.0001) %MON dynstat_wvel_max             =   8.2564905615520E-02
(PID.TID 0000.0001) %MON dynstat_wvel_min             =  -9.5312703258537E-02
(PID.TID 0000.0001) %MON dynstat_wvel_mean            =   4.9689655366501E-17
(PID.TID 0000.0001) %MON dynstat_wvel_sd              =   2.6054726820761E-02
(PID.TID 0000.0001) %MON dynstat_wvel_del2            =   3.4444750101154E-05
(PID.TID 0000.0001) %MON dynstat_theta_max            =   1.1539822142943E+03
(PID.TID 0000.0001) %MON dynstat_theta_min            =   2.5585767720350E+02
(PID.TID 0000.0001) %MON dynstat_theta_mean           =   3.2787563245715E+02
(PID.TID 0000.0001) %MON dynstat_theta_sd             =   9.0371598701330E+01
(PID.TID 0000.0001) %MON dynstat_theta_del2           =   5.6582349295750E-04
(PID.TID 0000.0001) %MON dynstat_salt_max             =   2.0315579466594E-02
(PID.TID 0000.0001) %MON dynstat_salt_min             =   0.0000000000000E+00
(PID.TID 0000.0001) %MON dynstat_salt_mean            =   1.7993401988672E-03
(PID.TID 0000.0001) %MON dynstat_salt_sd              =   3.7976602647760E-03
(PID.TID 0000.0001) %MON dynstat_salt_del2            =   1.6772913780411E-07
(PID.TID 0000.0001) %MON advcfl_uvel_max              =   2.4726350313662E-02
(PID.TID 0000.0001) %MON advcfl_vvel_max              =   2.4726342329678E-02
(PID.TID 0000.0001) %MON advcfl_wvel_max              =   5.0798382197922E-03
(PID.TID 0000.0001) %MON advcfl_W_hf_max              =   5.5885139898058E-03
(PID.TID 0000.0001) %MON am_eta_mean                  =  -1.0521721184523E+10
(PID.TID 0000.0001) %MON am_uZo_mean                  =   1.0520670430669E+10
(PID.TID 0000.0001) %MON am_tot_mean                  =  -1.0507538538399E+06
(PID.TID 0000.0001) %MON pe_b_mean                    =   1.1562959576894E-01
(PID.TID 0000.0001) %MON ke_max                       =   3.3771041878642E+01
(PID.TID 0000.0001) %MON ke_mean                      =   7.0313815715108E+00
(PID.TID 0000.0001) %MON ke_vol                       =   5.0986421042785E+19
(PID.TID 0000.0001) %MON vort_r_min                   =  -8.6190566830124E-07
(PID.TID 0000.0001) %MON vort_r_max                   =   8.6190591919852E-07
(PID.TID 0000.0001) %MON vort_a_mean                  =   2.4513551737851E-21
(PID.TID 0000.0001) %MON vort_a_sd                    =   8.4255058544015E-05
(PID.TID 0000.0001) %MON vort_p_mean                  =   0.0000000000000E+00
(PID.TID 0000.0001) %MON vort_p_sd                    =   8.4210958476168E-05
(PID.TID 0000.0001) %MON surfExpan_theta_mean         =  -1.7418313771236E+00
(PID.TID 0000.0001) %MON surfExpan_salt_mean          =  -1.6232787827474E-04
(PID.TID 0000.0001) %MON surfExpan_Heat_mean          =  -1.5286920379357E+02
(PID.TID 0000.0001) %MON En_Budget_T2PE_mean          =   1.7988461229658E+01
(PID.TID 0000.0001) // =======================================================
(PID.TID 0000.0001) // End MONITOR dynamic field statistics
(PID.TID 0000.0001) // =======================================================
 cg2d: Sum(rhs),rhsMax =   1.86264514923096E-09  2.72607527220384E+03
(PID.TID 0000.0001)      cg2d_init_res =   2.51258201259328E+04
(PID.TID 0000.0001)      cg2d_iters(min,last) =      -1      13
(PID.TID 0000.0001)      cg2d_last_res =   4.07824742627467E-11
(PID.TID 0000.0001) // =======================================================
(PID.TID 0000.0001) // Begin MONITOR dynamic field statistics
(PID.TID 0000.0001) // =======================================================
(PID.TID 0000.0001) %MON time_tsnumber                =                     7
(PID.TID 0000.0001) %MON time_secondsf                =   2.6880000000000E+03
(PID.TID 0000.0001) %MON dynstat_eta_max              =   3.8651185430561E+02
(PID.TID 0000.0001) %MON dynstat_eta_min              =  -2.7473496284474E+02
(PID.TID 0000.0001) %MON dynstat_eta_mean             =   3.7489720352458E-14
(PID.TID 0000.0001) %MON dynstat_eta_sd               =   2.1917633534413E+02
(PID.TID 0000.0001) %MON dynstat_eta_del2             =   2.6576680759268E-01
(PID.TID 0000.0001) %MON dynstat_uvel_max             =   9.4671998867566E+00
(PID.TID 0000.0001) %MON dynstat_uvel_min             =  -9.4671998885994E+00
(PID.TID 0000.0001) %MON dynstat_uvel_mean            =   8.7594355152787E-02
(PID.TID 0000.0001) %MON dynstat_uvel_sd              =   3.0763686412205E+00
(PID.TID 0000.0001) %MON dynstat_uvel_del2            =   6.6309381673484E-04
(PID.TID 0000.0001) %MON dynstat_vvel_max             =   9.4672001160003E+00
(PID.TID 0000.0001) %MON dynstat_vvel_min             =  -9.4671996889570E+00
(PID.TID 0000.0001) %MON dynstat_vvel_mean            =   8.7594358198535E-02
(PID.TID 0000.0001) %MON dynstat_vvel_sd              =   3.0763686386129E+00
(PID.TID 0000.0001) %MON dynstat_vvel_del2            =   6.6309460713529E-04
(PID.TID 0000.0001) %MON dynstat_wvel_max             =   9.3859290449549E-02
(PID.TID 0000.0001) %MON dynstat_wvel_min             =  -1.1238057178920E-01
(PID.TID 0000.0001) %MON dynstat_wvel_mean            =   1.4466608524424E-17
(PID.TID 0000.0001) %MON dynstat_wvel_sd              =   3.0169404913557E-02
(PID.TID 0000.0001) %MON dynstat_wvel_del2            =   3.8087529577446E-05
(PID.TID 0000.0001) %MON dynstat_theta_max            =   1.1540893386531E+03
(PID.TID 0000.0001) %MON dynstat_theta_min            =   2.5600418691781E+02
(PID.TID 0000.0001) %MON dynstat_theta_mean           =   3.2787641951924E+02
(PID.TID 0000.0001) %MON dynstat_theta_sd             =   9.0371137916649E+01
(PID.TID 0000.0001) %MON dynstat_theta_del2           =   5.7061581885214E-04
(PID.TID 0000.0001) %MON dynstat_salt_max             =   2.0315650318842E-02
(PID.TID 0000.0001) %MON dynstat_salt_min             =   0.0000000000000E+00
(PID.TID 0000.0001) %MON dynstat_salt_mean            =   1.7996031580130E-03
(PID.TID 0000.0001) %MON dynstat_salt_sd              =   3.7977192136914E-03
(PID.TID 0000.0001) %MON dynstat_salt_del2            =   1.7258687908128E-07
(PID.TID 0000.0001) %MON advcfl_uvel_max              =   2.8890589129312E-02
(PID.TID 0000.0001) %MON advcfl_vvel_max              =   2.8890581142035E-02
(PID.TID 0000.0001) %MON advcfl_wvel_max              =   5.5186337155319E-03
(PID.TID 0000.0001) %MON advcfl_W_hf_max              =   6.0684594573584E-03
(PID.TID 0000.0001) %MON am_eta_mean                  =  -1.4667773863742E+10
(PID.TID 0000.0001) %MON am_uZo_mean                  =   1.4664790489736E+10
(PID.TID 0000.0001) %MON am_tot_mean                  =  -2.9833740056343E+06
(PID.TID 0000.0001) %MON pe_b_mean                    =   2.0345527653442E-01
(PID.TID 0000.0001) %MON ke_max                       =   4.5605510527550E+01
(PID.TID 0000.0001) %MON ke_mean                      =   9.4717167799843E+00
(PID.TID 0000.0001) %MON ke_vol                       =   5.0986421042785E+19
(PID.TID 0000.0001) %MON vort_r_min                   =  -1.1368314880189E-06
(PID.TID 0000.0001) %MON vort_r_max                   =   1.1368320171937E-06
(PID.TID 0000.0001) %MON vort_a_mean                  =   2.6964906911637E-20
(PID.TID 0000.0001) %MON vort_a_sd                    =   8.4274165465503E-05
(PID.TID 0000.0001) %MON vort_p_mean                  =   2.4513549226166E-20
(PID.TID 0000.0001) %MON vort_p_sd                    =   8.4212654294917E-05
(PID.TID 0000.0001) %MON surfExpan_theta_mean         =  -2.0104985699789E+00
(PID.TID 0000.0001) %MON surfExpan_salt_mean          =  -1.8784074046663E-04
(PID.TID 0000.0001) %MON surfExpan_Heat_mean          =  -1.7650401903826E+02
(PID.TID 0000.0001) %MON En_Budget_T2PE_mean          =   2.0860860585969E+01
(PID.TID 0000.0001) // =======================================================
(PID.TID 0000.0001) // End MONITOR dynamic field statistics
(PID.TID 0000.0001) // =======================================================
 cg2d: Sum(rhs),rhsMax =   1.62981450557709E-09  3.47143034920218E+03
(PID.TID 0000.0001)      cg2d_init_res =   2.84429979206828E+04
(PID.TID 0000.0001)      cg2d_iters(min,last) =      -1      13
(PID.TID 0000.0001)      cg2d_last_res =   4.65949197219563E-11
(PID.TID 0000.0001) // =======================================================
(PID.TID 0000.0001) // Begin MONITOR dynamic field statistics
(PID.TID 0000.0001) // =======================================================
(PID.TID 0000.0001) %MON time_tsnumber                =                     8
(PID.TID 0000.0001) %MON time_secondsf                =   3.0720000000000E+03
(PID.TID 0000.0001) %MON dynstat_eta_max              =   4.9220664900792E+02
(PID.TID 0000.0001) %MON dynstat_eta_min              =  -3.5141776696255E+02
(PID.TID 0000.0001) %MON dynstat_eta_mean             =  -2.1422697344262E-14
(PID.TID 0000.0001) %MON dynstat_eta_sd               =   2.8024462396433E+02
(PID.TID 0000.0001) %MON dynstat_eta_del2             =   2.9461662438193E-01
(PID.TID 0000.0001) %MON dynstat_uvel_max             =   1.0763035939996E+01
(PID.TID 0000.0001) %MON dynstat_uvel_min             =  -1.0763035945205E+01
(PID.TID 0000.0001) %MON dynstat_uvel_mean            =   1.1401667398658E-01
(PID.TID 0000.0001) %MON dynstat_uvel_sd              =   3.4952350516335E+00
(PID.TID 0000.0001) %MON dynstat_uvel_del2            =   7.4425980500913E-04
(PID.TID 0000.0001) %MON dynstat_vvel_max             =   1.0763036248806E+01
(PID.TID 0000.0001) %MON dynstat_vvel_min             =  -1.0763035682633E+01
(PID.TID 0000.0001) %MON dynstat_vvel_mean            =   1.1401667991083E-01
(PID.TID 0000.0001) %MON dynstat_vvel_sd              =   3.4952350467479E+00
(PID.TID 0000.0001) %MON dynstat_vvel_del2            =   7.4426073989921E-04
(PID.TID 0000.0001) %MON dynstat_wvel_max             =   1.0554086085310E-01
(PID.TID 0000.0001) %MON dynstat_wvel_min             =  -1.2980174656240E-01
(PID.TID 0000.0001) %MON dynstat_wvel_mean            =   2.5159319172912E-18
(PID.TID 0000.0001) %MON dynstat_wvel_sd              =   3.4228142801665E-02
(PID.TID 0000.0001) %MON dynstat_wvel_del2            =   4.1859467732460E-05
(PID.TID 0000.0001) %MON dynstat_theta_max            =   1.1542051903061E+03
(PID.TID 0000.0001) %MON dynstat_theta_min            =   2.5614912439697E+02
(PID.TID 0000.0001) %MON dynstat_theta_mean           =   3.2787718740995E+02
(PID.TID 0000.0001) %MON dynstat_theta_sd             =   9.0370748815433E+01
(PID.TID 0000.0001) %MON dynstat_theta_del2           =   5.7565946748077E-04
(PID.TID 0000.0001) %MON dynstat_salt_max             =   2.0315721667991E-02
(PID.TID 0000.0001) %MON dynstat_salt_min             =   0.0000000000000E+00
(PID.TID 0000.0001) %MON dynstat_salt_mean            =   1.7998272926129E-03
(PID.TID 0000.0001) %MON dynstat_salt_sd              =   3.7977910972860E-03
(PID.TID 0000.0001) %MON dynstat_salt_del2            =   1.7678720746635E-07
(PID.TID 0000.0001) %MON advcfl_uvel_max              =   3.3056620212248E-02
(PID.TID 0000.0001) %MON advcfl_vvel_max              =   3.3056613575098E-02
(PID.TID 0000.0001) %MON advcfl_wvel_max              =   5.9059463978461E-03
(PID.TID 0000.0001) %MON advcfl_W_hf_max              =   6.4909640636161E-03
(PID.TID 0000.0001) %MON am_eta_mean                  =  -1.9463295510373E+10
(PID.TID 0000.0001) %MON am_uZo_mean                  =   1.9457410659652E+10
(PID.TID 0000.0001) %MON am_tot_mean                  =  -5.8848507202950E+06
(PID.TID 0000.0001) %MON pe_b_mean                    =   3.3262601701591E-01
(PID.TID 0000.0001) %MON ke_max                       =   5.9052931314982E+01
(PID.TID 0000.0001) %MON ke_mean                      =   1.2229667851714E+01
(PID.TID 0000.0001) %MON ke_vol                       =   5.0986421042784E+19
(PID.TID 0000.0001) %MON vort_r_min                   =  -1.4444483169566E-06
(PID.TID 0000.0001) %MON vort_r_max                   =   1.4444491677758E-06
(PID.TID 0000.0001) %MON vort_a_mean                  =   1.5198402077468E-19
(PID.TID 0000.0001) %MON vort_a_sd                    =   8.4295999114929E-05
(PID.TID 0000.0001) %MON vort_p_mean                  =   1.5198400029156E-19
(PID.TID 0000.0001) %MON vort_p_sd                    =   8.4214327324025E-05
(PID.TID 0000.0001) %MON surfExpan_theta_mean         =  -2.2704366509593E+00
(PID.TID 0000.0001) %MON surfExpan_salt_mean          =  -2.1271626559187E-04
(PID.TID 0000.0001) %MON surfExpan_Heat_mean          =  -1.9939738386586E+02
(PID.TID 0000.0001) %MON En_Budget_T2PE_mean          =   2.3683529386706E+01
(PID.TID 0000.0001) // =======================================================
(PID.TID 0000.0001) // End MONITOR dynamic field statistics
(PID.TID 0000.0001) // =======================================================
 cg2d: Sum(rhs),rhsMax =   1.86264514923096E-09  4.29471909399358E+03
(PID.TID 0000.0001)      cg2d_init_res =   3.16601652803260E+04
(PID.TID 0000.0001)      cg2d_iters(min,last) =      -1      13
(PID.TID 0000.0001)      cg2d_last_res =   5.33774253480420E-11
(PID.TID 0000.0001) // =======================================================
(PID.TID 0000.0001) // Begin MONITOR dynamic field statistics
(PID.TID 0000.0001) // =======================================================
(PID.TID 0000.0001) %MON time_tsnumber                =                     9
(PID.TID 0000.0001) %MON time_secondsf                =   3.4560000000000E+03
(PID.TID 0000.0001) %MON dynstat_eta_max              =   6.0896179102319E+02
(PID.TID 0000.0001) %MON dynstat_eta_min              =  -4.3678963258589E+02
(PID.TID 0000.0001) %MON dynstat_eta_mean             =   0.0000000000000E+00
(PID.TID 0000.0001) %MON dynstat_eta_sd               =   3.4822505764142E+02
(PID.TID 0000.0001) %MON dynstat_eta_del2             =   3.2377687221503E-01
(PID.TID 0000.0001) %MON dynstat_uvel_max             =   1.2037911720798E+01
(PID.TID 0000.0001) %MON dynstat_uvel_min             =  -1.2037911734542E+01
(PID.TID 0000.0001) %MON dynstat_uvel_mean            =   1.4357570553743E-01
(PID.TID 0000.0001) %MON dynstat_uvel_sd              =   3.9068309235294E+00
(PID.TID 0000.0001) %MON dynstat_uvel_del2            =   8.2362284254706E-04
(PID.TID 0000.0001) %MON dynstat_vvel_max             =   1.2037912051685E+01
(PID.TID 0000.0001) %MON dynstat_vvel_min             =  -1.2037911464655E+01
(PID.TID 0000.0001) %MON dynstat_vvel_mean            =   1.4357571622108E-01
(PID.TID 0000.0001) %MON dynstat_vvel_sd              =   3.9068309154021E+00
(PID.TID 0000.0001) %MON dynstat_vvel_del2            =   8.2362394701237E-04
(PID.TID 0000.0001) %MON dynstat_wvel_max             =   1.1680394898672E-01
(PID.TID 0000.0001) %MON dynstat_wvel_min             =  -1.4679286364503E-01
(PID.TID 0000.0001) %MON dynstat_wvel_mean            =  -1.1321693627810E-17
(PID.TID 0000.0001) %MON dynstat_wvel_sd              =   3.8227725680073E-02
(PID.TID 0000.0001) %MON dynstat_wvel_del2            =   4.5563075614192E-05
(PID.TID 0000.0001) %MON dynstat_theta_max            =   1.1543276288701E+03
(PID.TID 0000.0001) %MON dynstat_theta_min            =   2.5629236572254E+02
(PID.TID 0000.0001) %MON dynstat_theta_mean           =   3.2787782180800E+02
(PID.TID 0000.0001) %MON dynstat_theta_sd             =   9.0370512657343E+01
(PID.TID 0000.0001) %MON dynstat_theta_del2           =   5.7997522336707E-04
(PID.TID 0000.0001) %MON dynstat_salt_max             =   2.0315793554752E-02
(PID.TID 0000.0001) %MON dynstat_salt_min             =   0.0000000000000E+00
(PID.TID 0000.0001) %MON dynstat_salt_mean            =   1.8000479774349E-03
(PID.TID 0000.0001) %MON dynstat_salt_sd              =   3.7978577324534E-03
(PID.TID 0000.0001) %MON dynstat_salt_del2            =   1.7974662201117E-07
(PID.TID 0000.0001) %MON advcfl_uvel_max              =   3.7210730307843E-02
(PID.TID 0000.0001) %MON advcfl_vvel_max              =   3.7210725440747E-02
(PID.TID 0000.0001) %MON advcfl_wvel_max              =   6.2547266202487E-03
(PID.TID 0000.0001) %MON advcfl_W_hf_max              =   6.8702321299856E-03
(PID.TID 0000.0001) %MON am_eta_mean                  =  -2.4890880514217E+10
(PID.TID 0000.0001) %MON am_uZo_mean                  =   2.4880984929518E+10
(PID.TID 0000.0001) %MON am_tot_mean                  =  -9.8955846984558E+06
(PID.TID 0000.0001) %MON pe_b_mean                    =   5.1357239635037E-01
(PID.TID 0000.0001) %MON ke_max                       =   7.4034085299677E+01
(PID.TID 0000.0001) %MON ke_mean                      =   1.5283941818048E+01
(PID.TID 0000.0001) %MON ke_vol                       =   5.0986421042785E+19
(PID.TID 0000.0001) %MON vort_r_min                   =  -1.7828490817279E-06
(PID.TID 0000.0001) %MON vort_r_max                   =   1.7828502191105E-06
(PID.TID 0000.0001) %MON vort_a_mean                  =  -1.6178944146982E-19
(PID.TID 0000.0001) %MON vort_a_sd                    =   8.4320495675232E-05
(PID.TID 0000.0001) %MON vort_p_mean                  =  -1.6178941390340E-19
(PID.TID 0000.0001) %MON vort_p_sd                    =   8.4215977973893E-05
(PID.TID 0000.0001) %MON surfExpan_theta_mean         =  -2.5208033209347E+00
(PID.TID 0000.0001) %MON surfExpan_salt_mean          =  -2.3687563592571E-04
(PID.TID 0000.0001) %MON surfExpan_Heat_mean          =  -2.2147784956281E+02
(PID.TID 0000.0001) %MON En_Budget_T2PE_mean          =   2.6452222950212E+01
(PID.TID 0000.0001) // =======================================================
(PID.TID 0000.0001) // End MONITOR dynamic field statistics
(PID.TID 0000.0001) // =======================================================
 cg2d: Sum(rhs),rhsMax =  -9.31322574615479E-10  5.19151292225781E+03
(PID.TID 0000.0001)      cg2d_init_res =   3.47651259239651E+04
(PID.TID 0000.0001)      cg2d_iters(min,last) =      -1      13
(PID.TID 0000.0001)      cg2d_last_res =   5.96616227320059E-11
(PID.TID 0000.0001) // =======================================================
(PID.TID 0000.0001) // Begin MONITOR dynamic field statistics
(PID.TID 0000.0001) // =======================================================
(PID.TID 0000.0001) %MON time_tsnumber                =                    10
(PID.TID 0000.0001) %MON time_secondsf                =   3.8400000000000E+03
(PID.TID 0000.0001) %MON dynstat_eta_max              =   7.3615376585644E+02
(PID.TID 0000.0001) %MON dynstat_eta_min              =  -5.3055942235461E+02
(PID.TID 0000.0001) %MON dynstat_eta_mean             =   3.2134046016392E-14
(PID.TID 0000.0001) %MON dynstat_eta_sd               =   4.2288121520765E+02
(PID.TID 0000.0001) %MON dynstat_eta_del2             =   3.5425728789004E-01
(PID.TID 0000.0001) %MON dynstat_uvel_max             =   1.3297685045135E+01
(PID.TID 0000.0001) %MON dynstat_uvel_min             =  -1.3297685056800E+01
(PID.TID 0000.0001) %MON dynstat_uvel_mean            =   1.7615595599612E-01
(PID.TID 0000.0001) %MON dynstat_uvel_sd              =   4.3105290008397E+00
(PID.TID 0000.0001) %MON dynstat_uvel_del2            =   9.0098320892517E-04
(PID.TID 0000.0001) %MON dynstat_vvel_max             =   1.3297685028167E+01
(PID.TID 0000.0001) %MON dynstat_vvel_min             =  -1.3297685120392E+01
(PID.TID 0000.0001) %MON dynstat_vvel_mean            =   1.7615597412329E-01
(PID.TID 0000.0001) %MON dynstat_vvel_sd              =   4.3105289886842E+00
(PID.TID 0000.0001) %MON dynstat_vvel_del2            =   9.0098448114772E-04
(PID.TID 0000.0001) %MON dynstat_wvel_max             =   1.2781307545319E-01
(PID.TID 0000.0001) %MON dynstat_wvel_min             =  -1.6352224052271E-01
(PID.TID 0000.0001) %MON dynstat_wvel_mean            =   1.8869489379684E-16
(PID.TID 0000.0001) %MON dynstat_wvel_sd              =   4.2169041861541E-02
(PID.TID 0000.0001) %MON dynstat_wvel_del2            =   4.9280885633935E-05
(PID.TID 0000.0001) %MON dynstat_theta_max            =   1.1544550632614E+03
(PID.TID 0000.0001) %MON dynstat_theta_min            =   2.5643379927990E+02
(PID.TID 0000.0001) %MON dynstat_theta_mean           =   3.2787829689085E+02
(PID.TID 0000.0001) %MON dynstat_theta_sd             =   9.0370450490632E+01
(PID.TID 0000.0001) %MON dynstat_theta_del2           =   5.8281272371672E-04
(PID.TID 0000.0001) %MON dynstat_salt_max             =   2.0315866017048E-02
(PID.TID 0000.0001) %MON dynstat_salt_min             =   0.0000000000000E+00
(PID.TID 0000.0001) %MON dynstat_salt_mean            =   1.8002717452271E-03
(PID.TID 0000.0001) %MON dynstat_salt_sd              =   3.7979191975485E-03
(PID.TID 0000.0001) %MON dynstat_salt_del2            =   1.8419673750506E-07
(PID.TID 0000.0001) %MON advcfl_uvel_max              =   4.1361510489959E-02
(PID.TID 0000.0001) %MON advcfl_vvel_max              =   4.1361504231885E-02
(PID.TID 0000.0001) %MON advcfl_wvel_max              =   6.8172223356481E-03
(PID.TID 0000.0001) %MON advcfl_W_hf_max              =   7.4427380144845E-03
(PID.TID 0000.0001) %MON am_eta_mean                  =  -3.0931175850052E+10
(PID.TID 0000.0001) %MON am_uZo_mean                  =   3.0916028245467E+10
(PID.TID 0000.0001) %MON am_tot_mean                  =  -1.5147604585880E+07
(PID.TID 0000.0001) %MON pe_b_mean                    =   7.5738800502253E-01
(PID.TID 0000.0001) %MON ke_max                       =   9.0462769964989E+01
(PID.TID 0000.0001) %MON ke_mean                      =   1.8611691138710E+01
(PID.TID 0000.0001) %MON ke_vol                       =   5.0986421042785E+19
(PID.TID 0000.0001) %MON vort_r_min                   =  -2.1499383931546E-06
(PID.TID 0000.0001) %MON vort_r_max                   =   2.1499396955795E-06
(PID.TID 0000.0001) %MON vort_a_mean                  =  -1.9855976907660E-19
(PID.TID 0000.0001) %MON vort_a_sd                    =   8.4347584804936E-05
(PID.TID 0000.0001) %MON vort_p_mean                  =  -2.0346243682036E-19
(PID.TID 0000.0001) %MON vort_p_sd                    =   8.4217607661016E-05
(PID.TID 0000.0001) %MON surfExpan_theta_mean         =  -2.7607864588586E+00
(PID.TID 0000.0001) %MON surfExpan_salt_mean          =  -2.6024734943749E-04
(PID.TID 0000.0001) %MON surfExpan_Heat_mean          =  -2.4267621135677E+02
(PID.TID 0000.0001) %MON En_Budget_T2PE_mean          =   2.9162538457227E+01
(PID.TID 0000.0001) // =======================================================
(PID.TID 0000.0001) // End MONITOR dynamic field statistics
(PID.TID 0000.0001) // =======================================================
(PID.TID 0000.0001) DIAGSTATS_CLOSE_IO: close file: dynStDiag.0000000000.txt , unit=     9
(PID.TID 0000.0001) DIAGSTATS_CLOSE_IO: close file: diffStDiag.0000000000.txt , unit=    10
(PID.TID 0000.0001) DIAGSTATS_CLOSE_IO: close file: flxStDiag.0000000000.txt , unit=    16
(PID.TID 0000.0001) %CHECKPOINT        10 ckptA
(PID.TID 0000.0001)   Seconds in section "ALL                    [THE_MODEL_MAIN]":
(PID.TID 0000.0001)           User time:   34.039999999999999
(PID.TID 0000.0001)         System time:  0.28999999999999998
(PID.TID 0000.0001)     Wall clock time:   34.445047140121460
(PID.TID 0000.0001)          No. starts:           1
(PID.TID 0000.0001)           No. stops:           1
(PID.TID 0000.0001)   Seconds in section "INITIALISE_FIXED       [THE_MODEL_MAIN]":
(PID.TID 0000.0001)           User time:  0.29999999999999999
(PID.TID 0000.0001)         System time:  2.99999999999999989E-002
(PID.TID 0000.0001)     Wall clock time:  0.35362100601196289
(PID.TID 0000.0001)          No. starts:           1
(PID.TID 0000.0001)           No. stops:           1
(PID.TID 0000.0001)   Seconds in section "THE_MAIN_LOOP          [THE_MODEL_MAIN]":
(PID.TID 0000.0001)           User time:   33.740000000000002
(PID.TID 0000.0001)         System time:  0.26000000000000001
(PID.TID 0000.0001)     Wall clock time:   34.091383934020996
(PID.TID 0000.0001)          No. starts:           1
(PID.TID 0000.0001)           No. stops:           1
(PID.TID 0000.0001)   Seconds in section "INITIALISE_VARIA    [THE_MAIN_LOOP]":
(PID.TID 0000.0001)           User time:   3.1400000000000001
(PID.TID 0000.0001)         System time:  5.99999999999999978E-002
(PID.TID 0000.0001)     Wall clock time:   3.2092969417572021
(PID.TID 0000.0001)          No. starts:           1
(PID.TID 0000.0001)           No. stops:           1
(PID.TID 0000.0001)   Seconds in section "MAIN LOOP           [THE_MAIN_LOOP]":
(PID.TID 0000.0001)           User time:   30.599999999999998
(PID.TID 0000.0001)         System time:  0.19999999999999998
(PID.TID 0000.0001)     Wall clock time:   30.882055044174194
(PID.TID 0000.0001)          No. starts:           1
(PID.TID 0000.0001)           No. stops:           1
(PID.TID 0000.0001)   Seconds in section "MAIN_DO_LOOP        [THE_MAIN_LOOP]":
(PID.TID 0000.0001)           User time:   30.600000000000009
(PID.TID 0000.0001)         System time:  0.20000000000000001
(PID.TID 0000.0001)     Wall clock time:   30.881953954696655
(PID.TID 0000.0001)          No. starts:          10
(PID.TID 0000.0001)           No. stops:          10
(PID.TID 0000.0001)   Seconds in section "FORWARD_STEP        [MAIN_DO_LOOP]":
(PID.TID 0000.0001)           User time:   30.600000000000009
(PID.TID 0000.0001)         System time:  0.20000000000000001
(PID.TID 0000.0001)     Wall clock time:   30.881767511367798
(PID.TID 0000.0001)          No. starts:          10
(PID.TID 0000.0001)           No. stops:          10
(PID.TID 0000.0001)   Seconds in section "DO_STATEVARS_DIAGS  [FORWARD_STEP]":
(PID.TID 0000.0001)           User time:   1.2100000000000009
(PID.TID 0000.0001)         System time:   0.0000000000000000
(PID.TID 0000.0001)     Wall clock time:   1.2182312011718750
(PID.TID 0000.0001)          No. starts:          30
(PID.TID 0000.0001)           No. stops:          30
(PID.TID 0000.0001)   Seconds in section "LOAD_FIELDS_DRIVER  [FORWARD_STEP]":
(PID.TID 0000.0001)           User time:  2.00000000000031264E-002
(PID.TID 0000.0001)         System time:   0.0000000000000000
(PID.TID 0000.0001)     Wall clock time:  2.93219089508056641E-002
(PID.TID 0000.0001)          No. starts:          10
(PID.TID 0000.0001)           No. stops:          10
(PID.TID 0000.0001)   Seconds in section "EXTERNAL_FLDS_LOAD [LOAD_FLDS_DRIVER]":
(PID.TID 0000.0001)           User time:   0.0000000000000000
(PID.TID 0000.0001)         System time:   0.0000000000000000
(PID.TID 0000.0001)     Wall clock time:  1.02043151855468750E-004
(PID.TID 0000.0001)          No. starts:          10
(PID.TID 0000.0001)           No. stops:          10
(PID.TID 0000.0001)   Seconds in section "DO_ATMOSPHERIC_PHYS [FORWARD_STEP]":
(PID.TID 0000.0001)           User time:   3.4200000000000017
(PID.TID 0000.0001)         System time:  0.18000000000000005
(PID.TID 0000.0001)     Wall clock time:   3.6028966903686523
(PID.TID 0000.0001)          No. starts:          10
(PID.TID 0000.0001)           No. stops:          10
(PID.TID 0000.0001)   Seconds in section "ATM_PHYS_DRIVER [DO_ATMOSPHERIC_PHYS]":
(PID.TID 0000.0001)           User time:   3.4200000000000017
(PID.TID 0000.0001)         System time:  0.18000000000000005
(PID.TID 0000.0001)     Wall clock time:   3.6026990413665771
(PID.TID 0000.0001)          No. starts:          10
(PID.TID 0000.0001)           No. stops:          10
(PID.TID 0000.0001)   Seconds in section "DO_OCEANIC_PHYS     [FORWARD_STEP]":
(PID.TID 0000.0001)           User time:  1.00000000000015632E-002
(PID.TID 0000.0001)         System time:   0.0000000000000000
(PID.TID 0000.0001)     Wall clock time:  2.50911712646484375E-003
(PID.TID 0000.0001)          No. starts:          10
(PID.TID 0000.0001)           No. stops:          10
(PID.TID 0000.0001)   Seconds in section "DYNAMICS            [FORWARD_STEP]":
(PID.TID 0000.0001)           User time:   7.8999999999999986
(PID.TID 0000.0001)         System time:   0.0000000000000000
(PID.TID 0000.0001)     Wall clock time:   7.9340844154357910
(PID.TID 0000.0001)          No. starts:          10
(PID.TID 0000.0001)           No. stops:          10
(PID.TID 0000.0001)   Seconds in section "UPDATE_R_STAR       [FORWARD_STEP]":
(PID.TID 0000.0001)           User time:  0.49000000000000199
(PID.TID 0000.0001)         System time:   0.0000000000000000
(PID.TID 0000.0001)     Wall clock time:  0.50023913383483887
(PID.TID 0000.0001)          No. starts:          10
(PID.TID 0000.0001)           No. stops:          10
(PID.TID 0000.0001)   Seconds in section "UPDATE_CG2D         [FORWARD_STEP]":
(PID.TID 0000.0001)           User time:  0.20000000000000284
(PID.TID 0000.0001)         System time:   0.0000000000000000
(PID.TID 0000.0001)     Wall clock time:  0.19117951393127441
(PID.TID 0000.0001)          No. starts:          10
(PID.TID 0000.0001)           No. stops:          10
(PID.TID 0000.0001)   Seconds in section "SOLVE_FOR_PRESSURE  [FORWARD_STEP]":
(PID.TID 0000.0001)           User time:  0.63000000000000256
(PID.TID 0000.0001)         System time:   0.0000000000000000
(PID.TID 0000.0001)     Wall clock time:  0.64041256904602051
(PID.TID 0000.0001)          No. starts:          10
(PID.TID 0000.0001)           No. stops:          10
(PID.TID 0000.0001)   Seconds in section "MOM_CORRECTION_STEP [FORWARD_STEP]":
(PID.TID 0000.0001)           User time:   3.5599999999999952
(PID.TID 0000.0001)         System time:   0.0000000000000000
(PID.TID 0000.0001)     Wall clock time:   3.5550105571746826
(PID.TID 0000.0001)          No. starts:          10
(PID.TID 0000.0001)           No. stops:          10
(PID.TID 0000.0001)   Seconds in section "SHAP_FILT_UV       [MOM_CORR_STEP]":
(PID.TID 0000.0001)           User time:   3.2999999999999972
(PID.TID 0000.0001)         System time:   0.0000000000000000
(PID.TID 0000.0001)     Wall clock time:   3.3332762718200684
(PID.TID 0000.0001)          No. starts:          10
(PID.TID 0000.0001)           No. stops:          10
(PID.TID 0000.0001)   Seconds in section "INTEGR_CONTINUITY   [FORWARD_STEP]":
(PID.TID 0000.0001)           User time:  0.60000000000000142
(PID.TID 0000.0001)         System time:   0.0000000000000000
(PID.TID 0000.0001)     Wall clock time:  0.59625983238220215
(PID.TID 0000.0001)          No. starts:          10
(PID.TID 0000.0001)           No. stops:          10
(PID.TID 0000.0001)   Seconds in section "CALC_R_STAR         [FORWARD_STEP]":
(PID.TID 0000.0001)           User time:  3.99999999999991473E-002
(PID.TID 0000.0001)         System time:   0.0000000000000000
(PID.TID 0000.0001)     Wall clock time:  5.02223968505859375E-002
(PID.TID 0000.0001)          No. starts:          10
(PID.TID 0000.0001)           No. stops:          10
(PID.TID 0000.0001)   Seconds in section "BLOCKING_EXCHANGES  [FORWARD_STEP]":
(PID.TID 0000.0001)           User time:  0.46999999999999886
(PID.TID 0000.0001)         System time:   0.0000000000000000
(PID.TID 0000.0001)     Wall clock time:  0.45161128044128418
(PID.TID 0000.0001)          No. starts:          20
(PID.TID 0000.0001)           No. stops:          20
(PID.TID 0000.0001)   Seconds in section "THERMODYNAMICS      [FORWARD_STEP]":
(PID.TID 0000.0001)           User time:   6.8599999999999994
(PID.TID 0000.0001)         System time:   0.0000000000000000
(PID.TID 0000.0001)     Wall clock time:   6.9001049995422363
(PID.TID 0000.0001)          No. starts:          10
(PID.TID 0000.0001)           No. stops:          10
(PID.TID 0000.0001)   Seconds in section "TRC_CORRECTION_STEP [FORWARD_STEP]":
(PID.TID 0000.0001)           User time:   1.4700000000000060
(PID.TID 0000.0001)         System time:   0.0000000000000000
(PID.TID 0000.0001)     Wall clock time:   1.4689416885375977
(PID.TID 0000.0001)          No. starts:          10
(PID.TID 0000.0001)           No. stops:          10
(PID.TID 0000.0001)   Seconds in section "SHAP_FILT_TS       [TRC_CORR_STEP]":
(PID.TID 0000.0001)           User time:   1.3300000000000125
(PID.TID 0000.0001)         System time:   0.0000000000000000
(PID.TID 0000.0001)     Wall clock time:   1.3536529541015625
(PID.TID 0000.0001)          No. starts:          10
(PID.TID 0000.0001)           No. stops:          10
(PID.TID 0000.0001)   Seconds in section "MONITOR             [FORWARD_STEP]":
(PID.TID 0000.0001)           User time:   3.5500000000000043
(PID.TID 0000.0001)         System time:   0.0000000000000000
(PID.TID 0000.0001)     Wall clock time:   3.5432863235473633
(PID.TID 0000.0001)          No. starts:          10
(PID.TID 0000.0001)           No. stops:          10
(PID.TID 0000.0001)   Seconds in section "DO_THE_MODEL_IO     [FORWARD_STEP]":
(PID.TID 0000.0001)           User time:  7.00000000000002842E-002
(PID.TID 0000.0001)         System time:  1.00000000000000089E-002
(PID.TID 0000.0001)     Wall clock time:  8.32722187042236328E-002
(PID.TID 0000.0001)          No. starts:          10
(PID.TID 0000.0001)           No. stops:          10
(PID.TID 0000.0001)   Seconds in section "DO_WRITE_PICKUP     [FORWARD_STEP]":
(PID.TID 0000.0001)           User time:  0.10000000000000142
(PID.TID 0000.0001)         System time:  9.99999999999995337E-003
(PID.TID 0000.0001)     Wall clock time:  0.11205697059631348
(PID.TID 0000.0001)          No. starts:          10
(PID.TID 0000.0001)           No. stops:          10
(PID.TID 0000.0001) // ======================================================
(PID.TID 0000.0001) // Tile <-> Tile communication statistics
(PID.TID 0000.0001) // ======================================================
(PID.TID 0000.0001) // o Tile number: 000001
(PID.TID 0000.0001) //         No. X exchanges =              0
(PID.TID 0000.0001) //            Max. X spins =              0
(PID.TID 0000.0001) //            Min. X spins =     1000000000
(PID.TID 0000.0001) //          Total. X spins =              0
(PID.TID 0000.0001) //            Avg. X spins =       0.00E+00
(PID.TID 0000.0001) //         No. Y exchanges =              0
(PID.TID 0000.0001) //            Max. Y spins =              0
(PID.TID 0000.0001) //            Min. Y spins =     1000000000
(PID.TID 0000.0001) //          Total. Y spins =              0
(PID.TID 0000.0001) //            Avg. Y spins =       0.00E+00
(PID.TID 0000.0001) // o Tile number: 000002
(PID.TID 0000.0001) //         No. X exchanges =              0
(PID.TID 0000.0001) //            Max. X spins =              0
(PID.TID 0000.0001) //            Min. X spins =     1000000000
(PID.TID 0000.0001) //          Total. X spins =              0
(PID.TID 0000.0001) //            Avg. X spins =       0.00E+00
(PID.TID 0000.0001) //         No. Y exchanges =              0
(PID.TID 0000.0001) //            Max. Y spins =              0
(PID.TID 0000.0001) //            Min. Y spins =     1000000000
(PID.TID 0000.0001) //          Total. Y spins =              0
(PID.TID 0000.0001) //            Avg. Y spins =       0.00E+00
(PID.TID 0000.0001) // o Tile number: 000003
(PID.TID 0000.0001) //         No. X exchanges =              0
(PID.TID 0000.0001) //            Max. X spins =              0
(PID.TID 0000.0001) //            Min. X spins =     1000000000
(PID.TID 0000.0001) //          Total. X spins =              0
(PID.TID 0000.0001) //            Avg. X spins =       0.00E+00
(PID.TID 0000.0001) //         No. Y exchanges =              0
(PID.TID 0000.0001) //            Max. Y spins =              0
(PID.TID 0000.0001) //            Min. Y spins =     1000000000
(PID.TID 0000.0001) //          Total. Y spins =              0
(PID.TID 0000.0001) //            Avg. Y spins =       0.00E+00
(PID.TID 0000.0001) // o Tile number: 000004
(PID.TID 0000.0001) //         No. X exchanges =              0
(PID.TID 0000.0001) //            Max. X spins =              0
(PID.TID 0000.0001) //            Min. X spins =     1000000000
(PID.TID 0000.0001) //          Total. X spins =              0
(PID.TID 0000.0001) //            Avg. X spins =       0.00E+00
(PID.TID 0000.0001) //         No. Y exchanges =              0
(PID.TID 0000.0001) //            Max. Y spins =              0
(PID.TID 0000.0001) //            Min. Y spins =     1000000000
(PID.TID 0000.0001) //          Total. Y spins =              0
(PID.TID 0000.0001) //            Avg. Y spins =       0.00E+00
(PID.TID 0000.0001) // o Tile number: 000005
(PID.TID 0000.0001) //         No. X exchanges =              0
(PID.TID 0000.0001) //            Max. X spins =              0
(PID.TID 0000.0001) //            Min. X spins =     1000000000
(PID.TID 0000.0001) //          Total. X spins =              0
(PID.TID 0000.0001) //            Avg. X spins =       0.00E+00
(PID.TID 0000.0001) //         No. Y exchanges =              0
(PID.TID 0000.0001) //            Max. Y spins =              0
(PID.TID 0000.0001) //            Min. Y spins =     1000000000
(PID.TID 0000.0001) //          Total. Y spins =              0
(PID.TID 0000.0001) //            Avg. Y spins =       0.00E+00
(PID.TID 0000.0001) // o Tile number: 000006
(PID.TID 0000.0001) //         No. X exchanges =              0
(PID.TID 0000.0001) //            Max. X spins =              0
(PID.TID 0000.0001) //            Min. X spins =     1000000000
(PID.TID 0000.0001) //          Total. X spins =              0
(PID.TID 0000.0001) //            Avg. X spins =       0.00E+00
(PID.TID 0000.0001) //         No. Y exchanges =              0
(PID.TID 0000.0001) //            Max. Y spins =              0
(PID.TID 0000.0001) //            Min. Y spins =     1000000000
(PID.TID 0000.0001) //          Total. Y spins =              0
(PID.TID 0000.0001) //            Avg. Y spins =       0.00E+00
(PID.TID 0000.0001) // o Thread number: 000001
(PID.TID 0000.0001) //            No. barriers =           5410
(PID.TID 0000.0001) //      Max. barrier spins =              1
(PID.TID 0000.0001) //      Min. barrier spins =              1
(PID.TID 0000.0001) //     Total barrier spins =           5410
(PID.TID 0000.0001) //      Avg. barrier spins =       1.00E+00
PROGRAM MAIN: Execution ended Normally
