(PID.TID 0000.0001) 
(PID.TID 0000.0001) // ======================================================
(PID.TID 0000.0001) //                      MITgcm UV
(PID.TID 0000.0001) //                      =========
(PID.TID 0000.0001) // ======================================================
(PID.TID 0000.0001) // execution environment starting up...
(PID.TID 0000.0001) 
(PID.TID 0000.0001) // MITgcmUV version:  checkpoint64a
(PID.TID 0000.0001) // Build user:        jmc
(PID.TID 0000.0001) // Build host:        baudelaire
(PID.TID 0000.0001) // Build date:        Sun Dec  2 22:58:26 EST 2012
(PID.TID 0000.0001) 
(PID.TID 0000.0001) // =======================================================
(PID.TID 0000.0001) // Execution Environment parameter file "eedata"
(PID.TID 0000.0001) // =======================================================
(PID.TID 0000.0001) ># Example "eedata" file
(PID.TID 0000.0001) ># Lines beginning "#" are comments
(PID.TID 0000.0001) ># nTx - No. threads per process in X
(PID.TID 0000.0001) ># nTy - No. threads per process in Y
(PID.TID 0000.0001) > &EEPARMS
(PID.TID 0000.0001) > nTx=1,
(PID.TID 0000.0001) > nTy=1,
(PID.TID 0000.0001) > /
(PID.TID 0000.0001) ># Note: Some systems use & as the namelist terminator (as shown here).
(PID.TID 0000.0001) >#       Other systems use a / character.
(PID.TID 0000.0001) 
(PID.TID 0000.0001) // =======================================================
(PID.TID 0000.0001) // Computational Grid Specification ( see files "SIZE.h" )
(PID.TID 0000.0001) //                                  ( and "eedata"       )
(PID.TID 0000.0001) // =======================================================
(PID.TID 0000.0001)      nPx =    1 ; /* No. processes in X */
(PID.TID 0000.0001)      nPy =    1 ; /* No. processes in Y */
(PID.TID 0000.0001)      nSx =    1 ; /* No. tiles in X per process */
(PID.TID 0000.0001)      nSy =    4 ; /* No. tiles in Y per process */
(PID.TID 0000.0001)      sNx =  128 ; /* Tile size in X */
(PID.TID 0000.0001)      sNy =   16 ; /* Tile size in Y */
(PID.TID 0000.0001)      OLx =    2 ; /* Tile overlap distance in X */
(PID.TID 0000.0001)      OLy =    2 ; /* Tile overlap distance in Y */
(PID.TID 0000.0001)      nTx =    1 ; /* No. threads in X per process */
(PID.TID 0000.0001)      nTy =    1 ; /* No. threads in Y per process */
(PID.TID 0000.0001)       Nr =   25 ; /* No. levels in the vertical   */
(PID.TID 0000.0001)       Nx =  128 ; /* Total domain size in X ( = nPx*nSx*sNx ) */
(PID.TID 0000.0001)       Ny =   64 ; /* Total domain size in Y ( = nPy*nSy*sNy ) */
(PID.TID 0000.0001)   nTiles =    4 ; /* Total no. tiles per process ( = nSx*nSy ) */
(PID.TID 0000.0001)   nProcs =    1 ; /* Total no. processes ( = nPx*nPy ) */
(PID.TID 0000.0001) nThreads =    1 ; /* Total no. threads per process ( = nTx*nTy ) */
(PID.TID 0000.0001) usingMPI =    F ; /* Flag used to control whether MPI is in use */
(PID.TID 0000.0001)                   /*  note: To execute a program with MPI calls */
(PID.TID 0000.0001)                   /*  it must be launched appropriately e.g     */
(PID.TID 0000.0001)                   /*  "mpirun -np 64 ......"                    */
(PID.TID 0000.0001) useCoupler=    F ;/* Flag used to control communications with   */
(PID.TID 0000.0001)                   /*  other model components, through a coupler */
(PID.TID 0000.0001) debugMode =    F ; /* print debug msg. (sequence of S/R calls)  */
(PID.TID 0000.0001) printMapIncludesZeros=    F ; /* print zeros in Std.Output maps */
(PID.TID 0000.0001) maxLengthPrt1D=   65 /* maxLength of 1D array printed to StdOut */
(PID.TID 0000.0001) 
(PID.TID 0000.0001) // ======================================================
(PID.TID 0000.0001) // Mapping of tiles to threads
(PID.TID 0000.0001) // ======================================================
(PID.TID 0000.0001) // -o- Thread   1, tiles (   1:   1,   1:   4)
(PID.TID 0000.0001) 
(PID.TID 0000.0001) // ======================================================
(PID.TID 0000.0001) // Tile <-> Tile connectvity table
(PID.TID 0000.0001) // ======================================================
(PID.TID 0000.0001) // Tile number: 000001 (process no. = 000000)
(PID.TID 0000.0001) //        WEST: Tile = 000001, Process = 000000, Comm = put
(PID.TID 0000.0001) //                bi = 000001, bj = 000001
(PID.TID 0000.0001) //        EAST: Tile = 000001, Process = 000000, Comm = put
(PID.TID 0000.0001) //                bi = 000001, bj = 000001
(PID.TID 0000.0001) //       SOUTH: Tile = 000004, Process = 000000, Comm = put
(PID.TID 0000.0001) //                bi = 000001, bj = 000004
(PID.TID 0000.0001) //       NORTH: Tile = 000002, Process = 000000, Comm = put
(PID.TID 0000.0001) //                bi = 000001, bj = 000002
(PID.TID 0000.0001) // Tile number: 000002 (process no. = 000000)
(PID.TID 0000.0001) //        WEST: Tile = 000002, Process = 000000, Comm = put
(PID.TID 0000.0001) //                bi = 000001, bj = 000002
(PID.TID 0000.0001) //        EAST: Tile = 000002, Process = 000000, Comm = put
(PID.TID 0000.0001) //                bi = 000001, bj = 000002
(PID.TID 0000.0001) //       SOUTH: Tile = 000001, Process = 000000, Comm = put
(PID.TID 0000.0001) //                bi = 000001, bj = 000001
(PID.TID 0000.0001) //       NORTH: Tile = 000003, Process = 000000, Comm = put
(PID.TID 0000.0001) //                bi = 000001, bj = 000003
(PID.TID 0000.0001) // Tile number: 000003 (process no. = 000000)
(PID.TID 0000.0001) //        WEST: Tile = 000003, Process = 000000, Comm = put
(PID.TID 0000.0001) //                bi = 000001, bj = 000003
(PID.TID 0000.0001) //        EAST: Tile = 000003, Process = 000000, Comm = put
(PID.TID 0000.0001) //                bi = 000001, bj = 000003
(PID.TID 0000.0001) //       SOUTH: Tile = 000002, Process = 000000, Comm = put
(PID.TID 0000.0001) //                bi = 000001, bj = 000002
(PID.TID 0000.0001) //       NORTH: Tile = 000004, Process = 000000, Comm = put
(PID.TID 0000.0001) //                bi = 000001, bj = 000004
(PID.TID 0000.0001) // Tile number: 000004 (process no. = 000000)
(PID.TID 0000.0001) //        WEST: Tile = 000004, Process = 000000, Comm = put
(PID.TID 0000.0001) //                bi = 000001, bj = 000004
(PID.TID 0000.0001) //        EAST: Tile = 000004, Process = 000000, Comm = put
(PID.TID 0000.0001) //                bi = 000001, bj = 000004
(PID.TID 0000.0001) //       SOUTH: Tile = 000003, Process = 000000, Comm = put
(PID.TID 0000.0001) //                bi = 000001, bj = 000003
(PID.TID 0000.0001) //       NORTH: Tile = 000001, Process = 000000, Comm = put
(PID.TID 0000.0001) //                bi = 000001, bj = 000001
(PID.TID 0000.0001) 
(PID.TID 0000.0001)  INI_PARMS: opening model parameter file "data"
(PID.TID 0000.0001)  OPEN_COPY_DATA_FILE: opening file data
(PID.TID 0000.0001) // =======================================================
(PID.TID 0000.0001) // Parameter file "data"
(PID.TID 0000.0001) // =======================================================
(PID.TID 0000.0001) ># ====================
(PID.TID 0000.0001) ># | Model parameters |
(PID.TID 0000.0001) ># ====================
(PID.TID 0000.0001) >#
(PID.TID 0000.0001) ># Continuous equation parameters
(PID.TID 0000.0001) > &PARM01
(PID.TID 0000.0001) > tRef=295.2, 295.5, 295.9, 296.3, 296.7, 297.1, 297.6, 298.1, 298.7, 299.3,
(PID.TID 0000.0001) >      300.0, 300.7, 301.9, 304.1, 308.0, 312.0, 316.0, 320.,   324., 329.,
(PID.TID 0000.0001) >      338.,  339., 362.3, 419.2, 573.8,
(PID.TID 0000.0001) > sRef=0.01, 0.01, 0.01, 0.01, 0.01, 0.01, 0.01, 0.01, 0.01, 0.01, 15*0.,
(PID.TID 0000.0001) >#sRef=25*0.,
(PID.TID 0000.0001) > viscAr=0.E1,
(PID.TID 0000.0001) > viscAh=0.E6,
(PID.TID 0000.0001) > viscA4=0.E17,
(PID.TID 0000.0001) > no_slip_sides=.FALSE.,
(PID.TID 0000.0001) > no_slip_bottom=.FALSE.,
(PID.TID 0000.0001) > diffKhT=0.E3,
(PID.TID 0000.0001) > diffKrT=0.,
(PID.TID 0000.0001) > diffK4T=0.E17,
(PID.TID 0000.0001) > diffKrS=0.E2,
(PID.TID 0000.0001) > diffKhS=0.E3,
(PID.TID 0000.0001) > diffK4S=0.E17,
(PID.TID 0000.0001) > buoyancyRelation='ATMOSPHERIC',
(PID.TID 0000.0001) > eosType='IDEALG',
(PID.TID 0000.0001) > atm_Cp=1004.64,
(PID.TID 0000.0001) >#atm_Rq=0.6078,
(PID.TID 0000.0001) > Integr_GeoPot=2,
(PID.TID 0000.0001) > selectFindRoSurf=1,
(PID.TID 0000.0001) > gravity=9.80,
(PID.TID 0000.0001) > rhonil=1.0,
(PID.TID 0000.0001) > rhoConst=1.0,
(PID.TID 0000.0001) > rigidLid=.FALSE.,
(PID.TID 0000.0001) > implicitFreeSurface=.TRUE.,
(PID.TID 0000.0001) > exactConserv=.TRUE.,
(PID.TID 0000.0001) > select_rStar=2,
(PID.TID 0000.0001) > nonlinFreeSurf=4,
(PID.TID 0000.0001) > hFacInf=0.2,
(PID.TID 0000.0001) > hFacSup=2.0,
(PID.TID 0000.0001) > uniformLin_PhiSurf=.FALSE.,
(PID.TID 0000.0001) >#vectorInvariantMomentum=.TRUE.,
(PID.TID 0000.0001) >#tempAdvScheme=77,
(PID.TID 0000.0001) > saltAdvScheme=77,
(PID.TID 0000.0001) > staggerTimeStep=.TRUE.,
(PID.TID 0000.0001) > readBinaryPrec=64,
(PID.TID 0000.0001) > writeBinaryPrec=64,
(PID.TID 0000.0001) > hFacMin=1.0,
(PID.TID 0000.0001) > /
(PID.TID 0000.0001) >
(PID.TID 0000.0001) ># Elliptic solver parameters
(PID.TID 0000.0001) > &PARM02
(PID.TID 0000.0001) > cg2dMaxIters=200,
(PID.TID 0000.0001) > cg2dTargetResWunit=1.E-17,
(PID.TID 0000.0001) > /
(PID.TID 0000.0001) >
(PID.TID 0000.0001) ># Time stepping parameters
(PID.TID 0000.0001) > &PARM03
(PID.TID 0000.0001) > nIter0=0,
(PID.TID 0000.0001) > nTimeSteps=10,
(PID.TID 0000.0001) >#endTime=31104000.,
(PID.TID 0000.0001) >#endTime=864000.,
(PID.TID 0000.0001) > deltaT=300.,
(PID.TID 0000.0001) > abEps=0.1,
(PID.TID 0000.0001) > cAdjFreq=0.,
(PID.TID 0000.0001) >#chkptFreq =2592000.,
(PID.TID 0000.0001) >#pChkptFreq=7776000.,
(PID.TID 0000.0001) > dumpFreq=2592000.,
(PID.TID 0000.0001) >#monitorFreq=86400.,
(PID.TID 0000.0001) >#dumpFreq   =1.,
(PID.TID 0000.0001) > monitorFreq=1.,
(PID.TID 0000.0001) > /
(PID.TID 0000.0001) >
(PID.TID 0000.0001) ># Gridding parameters
(PID.TID 0000.0001) > &PARM04
(PID.TID 0000.0001) > usingSphericalPolarGrid=.TRUE.,
(PID.TID 0000.0001) > delX=128*2.8125,
(PID.TID 0000.0001) > delY=64*2.8125,
(PID.TID 0000.0001) > delR=25*40.E2,
(PID.TID 0000.0001) > Ro_SeaLevel=1.E5,
(PID.TID 0000.0001) > ygOrigin=-90.,
(PID.TID 0000.0001) > rSphere=6370.E3,
(PID.TID 0000.0001) > /
(PID.TID 0000.0001) >
(PID.TID 0000.0001) ># Input datasets
(PID.TID 0000.0001) > &PARM05
(PID.TID 0000.0001) > hydrogThetaFile='ini_theta.bin',
(PID.TID 0000.0001) > /
(PID.TID 0000.0001) 
(PID.TID 0000.0001)  INI_PARMS ; starts to read PARM01
(PID.TID 0000.0001)  INI_PARMS ; read PARM01 : OK
(PID.TID 0000.0001)  INI_PARMS ; starts to read PARM02
(PID.TID 0000.0001)  INI_PARMS ; read PARM02 : OK
(PID.TID 0000.0001)  INI_PARMS ; starts to read PARM03
(PID.TID 0000.0001)  INI_PARMS ; read PARM03 : OK
(PID.TID 0000.0001)  INI_PARMS ; starts to read PARM04
(PID.TID 0000.0001)  INI_PARMS ; read PARM04 : OK
(PID.TID 0000.0001)  INI_PARMS ; starts to read PARM05
(PID.TID 0000.0001)  INI_PARMS ; read PARM05 : OK
(PID.TID 0000.0001)  INI_PARMS: finished reading file "data"
(PID.TID 0000.0001)  PACKAGES_BOOT: opening data.pkg
(PID.TID 0000.0001)  OPEN_COPY_DATA_FILE: opening file data.pkg
(PID.TID 0000.0001) // =======================================================
(PID.TID 0000.0001) // Parameter file "data.pkg"
(PID.TID 0000.0001) // =======================================================
(PID.TID 0000.0001) ># Packages
(PID.TID 0000.0001) > &PACKAGES
(PID.TID 0000.0001) > useSHAP_FILT=.TRUE.,
(PID.TID 0000.0001) > useZONAL_FILT=.TRUE.,
(PID.TID 0000.0001) > useDiagnostics=.TRUE.,
(PID.TID 0000.0001) > useMyPackage=.TRUE.,
(PID.TID 0000.0001) > /
(PID.TID 0000.0001) 
(PID.TID 0000.0001)  PACKAGES_BOOT: finished reading data.pkg
(PID.TID 0000.0001)  SHAP_FILT_READPARMS: opening data.shap
(PID.TID 0000.0001)  OPEN_COPY_DATA_FILE: opening file data.shap
(PID.TID 0000.0001) // =======================================================
(PID.TID 0000.0001) // Parameter file "data.shap"
(PID.TID 0000.0001) // =======================================================
(PID.TID 0000.0001) ># Shapiro Filter parameters
(PID.TID 0000.0001) > &SHAP_PARM01
(PID.TID 0000.0001) > shap_filt_uvStar=.FALSE.,
(PID.TID 0000.0001) > shap_filt_TrStagg=.TRUE.,
(PID.TID 0000.0001) > Shap_funct=2,
(PID.TID 0000.0001) > nShapT=4,
(PID.TID 0000.0001) > nShapUV=4,
(PID.TID 0000.0001) > nShapTrPhys=0,
(PID.TID 0000.0001) > nShapUVPhys=0,
(PID.TID 0000.0001) >#Shap_TrLength=115000.,
(PID.TID 0000.0001) >#Shap_uvLength=110000.,
(PID.TID 0000.0001) >#Shap_Trtau=5400.,
(PID.TID 0000.0001) >#Shap_uvtau=5400.,
(PID.TID 0000.0001) > Shap_Trtau=1800.,
(PID.TID 0000.0001) > Shap_uvtau=1800.,
(PID.TID 0000.0001) > /
(PID.TID 0000.0001) 
(PID.TID 0000.0001)  SHAP_FILT_READPARMS: finished reading data.shap
(PID.TID 0000.0001) Shap_funct =   /* select Shapiro filter function */
(PID.TID 0000.0001)                       2
(PID.TID 0000.0001)     ;
(PID.TID 0000.0001) nShapT =   /* power of Shapiro filter for Temperat */
(PID.TID 0000.0001)                       4
(PID.TID 0000.0001)     ;
(PID.TID 0000.0001) nShapS =   /* power of Shapiro filter for Salinity */
(PID.TID 0000.0001)                       4
(PID.TID 0000.0001)     ;
(PID.TID 0000.0001) nShapUV =   /* power of Shapiro filter for momentum */
(PID.TID 0000.0001)                       4
(PID.TID 0000.0001)     ;
(PID.TID 0000.0001) shap_filt_uvStar = /* apply filter before Press. Solver */
(PID.TID 0000.0001)                   F
(PID.TID 0000.0001)     ;
(PID.TID 0000.0001) shap_filt_TrStagg = /* filter T,S before calc PhiHyd (staggerTimeStep) */
(PID.TID 0000.0001)                   T
(PID.TID 0000.0001)     ;
(PID.TID 0000.0001) Shap_alwaysExchUV = /* always exch(U,V)    nShapUV times*/
(PID.TID 0000.0001)                   F
(PID.TID 0000.0001)     ;
(PID.TID 0000.0001) Shap_alwaysExchTr = /* always exch(Tracer) nShapTr times*/
(PID.TID 0000.0001)                   F
(PID.TID 0000.0001)     ;
(PID.TID 0000.0001) nShapTrPhys =   /* power of physical-space filter (Tracer) */
(PID.TID 0000.0001)                       0
(PID.TID 0000.0001)     ;
(PID.TID 0000.0001) nShapUVPhys =   /* power of physical-space filter (Momentum) */
(PID.TID 0000.0001)                       0
(PID.TID 0000.0001)     ;
(PID.TID 0000.0001) Shap_Trtau =   /* time scale of Shapiro filter (Tracer) */
(PID.TID 0000.0001)                 1.800000000000000E+03
(PID.TID 0000.0001)     ;
(PID.TID 0000.0001) Shap_TrLength =   /* Length scale of Shapiro filter (Tracer) */
(PID.TID 0000.0001)                 0.000000000000000E+00
(PID.TID 0000.0001)     ;
(PID.TID 0000.0001) Shap_uvtau =   /* time scale of Shapiro filter (Momentum) */
(PID.TID 0000.0001)                 1.800000000000000E+03
(PID.TID 0000.0001)     ;
(PID.TID 0000.0001) Shap_uvLength =   /* Length scale of Shapiro filter (Momentum) */
(PID.TID 0000.0001)                 0.000000000000000E+00
(PID.TID 0000.0001)     ;
(PID.TID 0000.0001) Shap_noSlip =  /* No-slip parameter (0=Free-slip ; 1=No-slip)*/
(PID.TID 0000.0001)                 0.000000000000000E+00
(PID.TID 0000.0001)     ;
(PID.TID 0000.0001) Shap_diagFreq =   /* Frequency^-1 for diagnostic output (s)*/
(PID.TID 0000.0001)                 0.000000000000000E+00
(PID.TID 0000.0001)     ;
(PID.TID 0000.0001)  ZONAL_FILT_READPARMS: opening data.zonfilt
(PID.TID 0000.0001)  OPEN_COPY_DATA_FILE: opening file data.zonfilt
(PID.TID 0000.0001) // =======================================================
(PID.TID 0000.0001) // Parameter file "data.zonfilt"
(PID.TID 0000.0001) // =======================================================
(PID.TID 0000.0001) ># Zonal Filter parameters
(PID.TID 0000.0001) > &ZONFILT_PARM01
(PID.TID 0000.0001) > zonal_filt_uvStar =.FALSE.,
(PID.TID 0000.0001) > zonal_filt_TrStagg=.TRUE.,
(PID.TID 0000.0001) > zonal_filt_lat=45.,
(PID.TID 0000.0001) > zonal_filt_sinpow=2,
(PID.TID 0000.0001) > zonal_filt_cospow=2,
(PID.TID 0000.0001) > zonal_filt_mode2dx=0,
(PID.TID 0000.0001) > /
(PID.TID 0000.0001) >
(PID.TID 0000.0001) 
(PID.TID 0000.0001)  ZONAL_FILT_READPARMS: finished reading data.zonfilt
(PID.TID 0000.0001)  DIAGNOSTICS_READPARMS: opening data.diagnostics
(PID.TID 0000.0001)  OPEN_COPY_DATA_FILE: opening file data.diagnostics
(PID.TID 0000.0001) // =======================================================
(PID.TID 0000.0001) // Parameter file "data.diagnostics"
(PID.TID 0000.0001) // =======================================================
(PID.TID 0000.0001) ># Diagnostic Package Choices
(PID.TID 0000.0001) >#--------------------
(PID.TID 0000.0001) >#  dumpAtLast (logical): always write output at the end of simulation (default=F)
(PID.TID 0000.0001) >#  diag_mnc   (logical): write to NetCDF files (default=useMNC)
(PID.TID 0000.0001) >#--for each output-stream:
(PID.TID 0000.0001) >#  fileName(n) : prefix of the output file name (max 80c long) for outp.stream n
(PID.TID 0000.0001) >#  frequency(n):< 0 : write snap-shot output every |frequency| seconds
(PID.TID 0000.0001) >#               > 0 : write time-average output every frequency seconds
(PID.TID 0000.0001) >#  timePhase(n)     : write at time = timePhase + multiple of |frequency|
(PID.TID 0000.0001) >#    averagingFreq  : frequency (in s) for periodic averaging interval
(PID.TID 0000.0001) >#    averagingPhase : phase     (in s) for periodic averaging interval
(PID.TID 0000.0001) >#    repeatCycle    : number of averaging intervals in 1 cycle
(PID.TID 0000.0001) >#  levels(:,n) : list of levels to write to file (Notes: declared as REAL)
(PID.TID 0000.0001) >#                when this entry is missing, select all common levels of this list
(PID.TID 0000.0001) >#  fields(:,n) : list of selected diagnostics fields (8.c) in outp.stream n
(PID.TID 0000.0001) >#                (see "available_diagnostics.log" file for the full list of diags)
(PID.TID 0000.0001) >#  missing_value(n) : missing value for real-type fields in output file "n"
(PID.TID 0000.0001) >#  fileFlags(n)     : specific code (8c string) for output file "n"
(PID.TID 0000.0001) >#--------------------
(PID.TID 0000.0001) > &DIAGNOSTICS_LIST
(PID.TID 0000.0001) ># diag_mnc     = .FALSE.,
(PID.TID 0000.0001) >#--
(PID.TID 0000.0001) >  fields(1:9,1)  = 'ETAN    ','ETANSQ  ','DETADT2 ','AtPhCnvP','AtPhLscP',
(PID.TID 0000.0001) >                   'AtPhSens','AtPhEvap','AtPhTauX','AtPhTauY',
(PID.TID 0000.0001) >   fileName(1) = 'surfDiag',
(PID.TID 0000.0001) ># fileFlags(1) = 'D       ',
(PID.TID 0000.0001) >  frequency(1) = 43200.,
(PID.TID 0000.0001) ># frequency(1) = 21600.,
(PID.TID 0000.0001) >  fields(1:13,2) = 'UVEL    ','VVEL    ','WVEL    ','THETA   ','SALT    ',
(PID.TID 0000.0001) >                   'AtPhdTdt','AtPhdQdt','AtPhdUdt','AtPhdVdt',
(PID.TID 0000.0001) >                   'AtPhdtTg','AtPhdtQg','AtPhDifT','AtPhDifM',
(PID.TID 0000.0001) >#                  'SHAP_dU ',
(PID.TID 0000.0001) >   fileName(2) = 'dynDiag',
(PID.TID 0000.0001) ># frequency(2) = 2592000.,
(PID.TID 0000.0001) >  frequency(2) = 43200.,
(PID.TID 0000.0001) ># frequency(2) = 21600.,
(PID.TID 0000.0001) > /
(PID.TID 0000.0001) >
(PID.TID 0000.0001) >#--------------------
(PID.TID 0000.0001) ># Parameter for Diagnostics of per level statistics:
(PID.TID 0000.0001) >#--------------------
(PID.TID 0000.0001) >#  diagSt_mnc (logical): write stat-diags to NetCDF files (default=diag_mnc)
(PID.TID 0000.0001) >#  diagSt_regMaskFile : file containing the region-mask to read-in
(PID.TID 0000.0001) >#  nSetRegMskFile   : number of region-mask sets within the region-mask file
(PID.TID 0000.0001) >#  set_regMask(i)   : region-mask set-index that identifies the region "i"
(PID.TID 0000.0001) >#  val_regMask(i)   : region "i" identifier value in the region mask
(PID.TID 0000.0001) >#--for each output-stream:
(PID.TID 0000.0001) >#  stat_fName(n) : prefix of the output file name (max 80c long) for outp.stream n
(PID.TID 0000.0001) >#  stat_freq(n):< 0 : write snap-shot output every |stat_freq| seconds
(PID.TID 0000.0001) >#               > 0 : write time-average output every stat_freq seconds
(PID.TID 0000.0001) >#  stat_phase(n)    : write at time = stat_phase + multiple of |stat_freq|
(PID.TID 0000.0001) >#  stat_region(:,n) : list of "regions" (default: 1 region only=global)
(PID.TID 0000.0001) >#  stat_fields(:,n) : list of selected diagnostics fields (8.c) in outp.stream n
(PID.TID 0000.0001) >#                (see "available_diagnostics.log" file for the full list of diags)
(PID.TID 0000.0001) >#--------------------
(PID.TID 0000.0001) > &DIAG_STATIS_PARMS
(PID.TID 0000.0001) >#  diagSt_regMaskFile='northEquatMask.bin',
(PID.TID 0000.0001) >#  nSetRegMskFile = 1,
(PID.TID 0000.0001) >#  set_regMask(1:3)=  1, 1, 1,
(PID.TID 0000.0001) >#  val_regMask(1:3)=  1., 2., 0.,
(PID.TID 0000.0001) > stat_fields(1:14,1) = 'ETAN    ','THETA   ','SALT    ',
(PID.TID 0000.0001) >                       'UVEL    ','VVEL    ','WVEL    ',
(PID.TID 0000.0001) >                       'AtPhdTdt','AtPhdQdt','AtPhdUdt','AtPhdVdt',
(PID.TID 0000.0001) >                       'AtPhdtTg','AtPhdtQg','AtPhDifT','AtPhDifM',
(PID.TID 0000.0001) >  stat_fName(1) = 'dynStDiag',
(PID.TID 0000.0001) >   stat_freq(1)= 7200.,
(PID.TID 0000.0001) >  stat_phase(1) = 0.,
(PID.TID 0000.0001) ># stat_fields(1:2,2)  = 'AtPhDifT','AtPhDifM',
(PID.TID 0000.0001) >#  stat_fName(2) = 'diffStDiag',
(PID.TID 0000.0001) >#   stat_freq(2)= 450.,
(PID.TID 0000.0001) >#  stat_region(1:3,2)= 1, 2, 0,
(PID.TID 0000.0001) >#  stat_phase(2) = 0.,
(PID.TID 0000.0001) > stat_fields(1:6,3) = 'AtPhSens','AtPhEvap','AtPhTauX','AtPhTauY',
(PID.TID 0000.0001) >                      'AtPhCnvP','AtPhLscP',
(PID.TID 0000.0001) > stat_fName(3) = 'flxStDiag',
(PID.TID 0000.0001) > stat_freq(3) = 7200.,
(PID.TID 0000.0001) > stat_phase(3) = 0.,
(PID.TID 0000.0001) > /
(PID.TID 0000.0001) >
(PID.TID 0000.0001) 
(PID.TID 0000.0001) S/R DIAGNOSTICS_READPARMS, read namelist "diagnostics_list": start
(PID.TID 0000.0001) S/R DIAGNOSTICS_READPARMS, read namelist "diagnostics_list": OK
(PID.TID 0000.0001) S/R DIAGNOSTICS_READPARMS, read namelist "DIAG_STATIS_PARMS": start
(PID.TID 0000.0001) S/R DIAGNOSTICS_READPARMS, read namelist "DIAG_STATIS_PARMS": OK
(PID.TID 0000.0001)  DIAGNOSTICS_READPARMS: global parameter summary:
(PID.TID 0000.0001)  dumpAtLast = /* always write time-ave diags at the end */
(PID.TID 0000.0001)                   F
(PID.TID 0000.0001)     ;
(PID.TID 0000.0001)  diag_mnc =   /* write NetCDF output files */
(PID.TID 0000.0001)                   F
(PID.TID 0000.0001)     ;
(PID.TID 0000.0001)  useMissingValue = /* put MissingValue where mask = 0 */
(PID.TID 0000.0001)                   F
(PID.TID 0000.0001)     ;
(PID.TID 0000.0001)  diagCG_maxIters = /* max number of iters in diag_cg2d */
(PID.TID 0000.0001)                     200
(PID.TID 0000.0001)     ;
(PID.TID 0000.0001)  diagCG_resTarget = /* residual target for diag_cg2d */
(PID.TID 0000.0001)                 1.000000000000000E-07
(PID.TID 0000.0001)     ;
(PID.TID 0000.0001) -----------------------------------------------------
(PID.TID 0000.0001)  DIAGNOSTICS_READPARMS: active diagnostics summary:
(PID.TID 0000.0001) -----------------------------------------------------
(PID.TID 0000.0001) Creating Output Stream: surfDiag
(PID.TID 0000.0001) Output Frequency:      43200.000000 ; Phase:           0.000000
(PID.TID 0000.0001)  Averaging Freq.:      43200.000000 , Phase:           0.000000 , Cycle:   1
(PID.TID 0000.0001)  missing value:  1.234567000000E+05 ; for integers:   123456789
(PID.TID 0000.0001)  Levels:    will be set later
(PID.TID 0000.0001)  Fields:    ETAN     ETANSQ   DETADT2  AtPhCnvP AtPhLscP AtPhSens AtPhEvap AtPhTauX AtPhTauY
(PID.TID 0000.0001) Creating Output Stream: dynDiag
(PID.TID 0000.0001) Output Frequency:      43200.000000 ; Phase:           0.000000
(PID.TID 0000.0001)  Averaging Freq.:      43200.000000 , Phase:           0.000000 , Cycle:   1
(PID.TID 0000.0001)  missing value:  1.234567000000E+05 ; for integers:   123456789
(PID.TID 0000.0001)  Levels:    will be set later
(PID.TID 0000.0001)  Fields:    UVEL     VVEL     WVEL     THETA    SALT     AtPhdTdt AtPhdQdt AtPhdUdt AtPhdVdt AtPhdtTg
(PID.TID 0000.0001)  Fields:    AtPhdtQg AtPhDifT AtPhDifM
(PID.TID 0000.0001) -----------------------------------------------------
(PID.TID 0000.0001)  DIAGNOSTICS_READPARMS: statistics diags. summary:
(PID.TID 0000.0001) Creating Stats. Output Stream: dynStDiag
(PID.TID 0000.0001) Output Frequency:       7200.000000 ; Phase:           0.000000
(PID.TID 0000.0001)  Regions:   0
(PID.TID 0000.0001)  Fields:    ETAN     THETA    SALT     UVEL     VVEL     WVEL     AtPhdTdt AtPhdQdt AtPhdUdt AtPhdVdt
(PID.TID 0000.0001)  Fields:    AtPhdtTg AtPhdtQg AtPhDifT AtPhDifM
(PID.TID 0000.0001) Creating Stats. Output Stream: flxStDiag
(PID.TID 0000.0001) Output Frequency:       7200.000000 ; Phase:           0.000000
(PID.TID 0000.0001)  Regions:   0
(PID.TID 0000.0001)  Fields:    AtPhSens AtPhEvap AtPhTauX AtPhTauY AtPhCnvP AtPhLscP
(PID.TID 0000.0001) -----------------------------------------------------
(PID.TID 0000.0001) 
(PID.TID 0000.0001) MYPACKAGE_READPARMS: opening data.mypackage
(PID.TID 0000.0001)  OPEN_COPY_DATA_FILE: opening file data.mypackage
(PID.TID 0000.0001) // =======================================================
(PID.TID 0000.0001) // Parameter file "data.mypackage"
(PID.TID 0000.0001) // =======================================================
(PID.TID 0000.0001) >#
(PID.TID 0000.0001) > &MYPACKAGE_PARM01
(PID.TID 0000.0001) > myPa_Surf1File='SST_cos0.bin'
(PID.TID 0000.0001) > myPa_applyTendT=.TRUE.,
(PID.TID 0000.0001) > myPa_applyTendS=.TRUE.,
(PID.TID 0000.0001) > myPa_applyTendU=.TRUE.,
(PID.TID 0000.0001) > myPa_applyTendV=.TRUE.,
(PID.TID 0000.0001) > myPa_Tend_Cgrid=.FALSE.,
(PID.TID 0000.0001) > /
(PID.TID 0000.0001) 
(PID.TID 0000.0001) MYPACKAGE_READPARMS: finished reading data.mypackage
(PID.TID 0000.0001) SET_PARMS: done
(PID.TID 0000.0001) Enter INI_VERTICAL_GRID: setInterFDr=    T ; setCenterDr=    F
(PID.TID 0000.0001) %MON XC_max                       =   3.5859375000000E+02
(PID.TID 0000.0001) %MON XC_min                       =   1.4062500000000E+00
(PID.TID 0000.0001) %MON XC_mean                      =   1.8000000000000E+02
(PID.TID 0000.0001) %MON XC_sd                        =   1.0391987692599E+02
(PID.TID 0000.0001) %MON XG_max                       =   3.5718750000000E+02
(PID.TID 0000.0001) %MON XG_min                       =   0.0000000000000E+00
(PID.TID 0000.0001) %MON XG_mean                      =   1.7859375000000E+02
(PID.TID 0000.0001) %MON XG_sd                        =   1.0391987692599E+02
(PID.TID 0000.0001) %MON DXC_max                      =   3.1259246843155E+05
(PID.TID 0000.0001) %MON DXC_min                      =   7.6737143816223E+03
(PID.TID 0000.0001) %MON DXC_mean                     =   1.9908248704234E+05
(PID.TID 0000.0001) %MON DXC_sd                       =   9.6190602240066E+04
(PID.TID 0000.0001) %MON DXF_max                      =   3.1259246843155E+05
(PID.TID 0000.0001) %MON DXF_min                      =   7.6737143816223E+03
(PID.TID 0000.0001) %MON DXF_mean                     =   1.9908248704234E+05
(PID.TID 0000.0001) %MON DXF_sd                       =   9.6190602240066E+04
(PID.TID 0000.0001) %MON DXG_max                      =   3.1268664380261E+05
(PID.TID 0000.0001) %MON DXG_min                      =   0.0000000000000E+00
(PID.TID 0000.0001) %MON DXG_mean                     =   1.9902252711933E+05
(PID.TID 0000.0001) %MON DXG_sd                       =   9.6314600686013E+04
(PID.TID 0000.0001) %MON DXV_max                      =   3.1268664380261E+05
(PID.TID 0000.0001) %MON DXV_min                      =   0.0000000000000E+00
(PID.TID 0000.0001) %MON DXV_mean                     =   1.9902252711933E+05
(PID.TID 0000.0001) %MON DXV_sd                       =   9.6314600686013E+04
(PID.TID 0000.0001) %MON YC_max                       =   8.8593750000000E+01
(PID.TID 0000.0001) %MON YC_min                       =  -8.8593750000000E+01
(PID.TID 0000.0001) %MON YC_mean                      =   0.0000000000000E+00
(PID.TID 0000.0001) %MON YC_sd                        =   5.1955180880375E+01
(PID.TID 0000.0001) %MON YG_max                       =   8.7187500000000E+01
(PID.TID 0000.0001) %MON YG_min                       =  -9.0000000000000E+01
(PID.TID 0000.0001) %MON YG_mean                      =  -1.4062500000000E+00
(PID.TID 0000.0001) %MON YG_sd                        =   5.1955180880375E+01
(PID.TID 0000.0001) %MON DYC_max                      =   3.1268664380261E+05
(PID.TID 0000.0001) %MON DYC_min                      =   3.1268664380261E+05
(PID.TID 0000.0001) %MON DYC_mean                     =   3.1268664380260E+05
(PID.TID 0000.0001) %MON DYC_sd                       =   4.3655745685101E-09
(PID.TID 0000.0001) %MON DYF_max                      =   3.1268664380261E+05
(PID.TID 0000.0001) %MON DYF_min                      =   3.1268664380261E+05
(PID.TID 0000.0001) %MON DYF_mean                     =   3.1268664380260E+05
(PID.TID 0000.0001) %MON DYF_sd                       =   4.3655745685101E-09
(PID.TID 0000.0001) %MON DYG_max                      =   3.1268664380261E+05
(PID.TID 0000.0001) %MON DYG_min                      =   3.1268664380261E+05
(PID.TID 0000.0001) %MON DYG_mean                     =   3.1268664380260E+05
(PID.TID 0000.0001) %MON DYG_sd                       =   4.3655745685101E-09
(PID.TID 0000.0001) %MON DYU_max                      =   3.1268664380261E+05
(PID.TID 0000.0001) %MON DYU_min                      =   3.1268664380261E+05
(PID.TID 0000.0001) %MON DYU_mean                     =   3.1268664380260E+05
(PID.TID 0000.0001) %MON DYU_sd                       =   4.3655745685101E-09
(PID.TID 0000.0001) %MON RA_max                       =   9.7733676797555E+10
(PID.TID 0000.0001) %MON RA_min                       =   2.3992270990190E+09
(PID.TID 0000.0001) %MON RA_mean                      =   6.2244185031956E+10
(PID.TID 0000.0001) %MON RA_sd                        =   3.0074496923945E+10
(PID.TID 0000.0001) %MON RAW_max                      =   9.7733676797555E+10
(PID.TID 0000.0001) %MON RAW_min                      =   2.3992270990190E+09
(PID.TID 0000.0001) %MON RAW_mean                     =   6.2244185031956E+10
(PID.TID 0000.0001) %MON RAW_sd                       =   3.0074496923945E+10
(PID.TID 0000.0001) %MON RAS_max                      =   9.7763121221868E+10
(PID.TID 0000.0001) %MON RAS_min                      =   0.0000000000000E+00
(PID.TID 0000.0001) %MON RAS_mean                     =   6.2225438247155E+10
(PID.TID 0000.0001) %MON RAS_sd                       =   3.0113265689233E+10
(PID.TID 0000.0001) %MON RAZ_max                      =   9.7763121221868E+10
(PID.TID 0000.0001) %MON RAZ_min                      =   0.0000000000000E+00
(PID.TID 0000.0001) %MON RAZ_mean                     =   6.2225438247155E+10
(PID.TID 0000.0001) %MON RAZ_sd                       =   3.0113265689233E+10
(PID.TID 0000.0001) %MON AngleCS_max                  =   1.0000000000000E+00
(PID.TID 0000.0001) %MON AngleCS_min                  =   1.0000000000000E+00
(PID.TID 0000.0001) %MON AngleCS_mean                 =   1.0000000000000E+00
(PID.TID 0000.0001) %MON AngleCS_sd                   =   0.0000000000000E+00
(PID.TID 0000.0001) %MON AngleSN_max                  =   0.0000000000000E+00
(PID.TID 0000.0001) %MON AngleSN_min                  =   0.0000000000000E+00
(PID.TID 0000.0001) %MON AngleSN_mean                 =   0.0000000000000E+00
(PID.TID 0000.0001) %MON AngleSN_sd                   =   0.0000000000000E+00
(PID.TID 0000.0001) 
(PID.TID 0000.0001) SET_REF_STATE: PhiRef/g [m] at level Center (integer)
(PID.TID 0000.0001)                      and at level Interface (half-int.) :
(PID.TID 0000.0001)  K=  0.5  ;  r=       100000.0  ;  phiRef/g=        0.000
(PID.TID 0000.0001)  K=  1.0  ;  r=        98000.0  ;  phiRef/g=      174.176
(PID.TID 0000.0001)  K=  1.5  ;  r=        96000.0  ;  phiRef/g=      352.236
(PID.TID 0000.0001)  K=  2.0  ;  r=        94000.0  ;  phiRef/g=      530.476
(PID.TID 0000.0001)  K=  2.5  ;  r=        92000.0  ;  phiRef/g=      714.219
(PID.TID 0000.0001)  K=  3.0  ;  r=        90000.0  ;  phiRef/g=      898.211
(PID.TID 0000.0001)  K=  3.5  ;  r=        88000.0  ;  phiRef/g=     1088.141
(PID.TID 0000.0001)  K=  4.0  ;  r=        86000.0  ;  phiRef/g=     1278.327
(PID.TID 0000.0001)  K=  4.5  ;  r=        84000.0  ;  phiRef/g=     1474.941
(PID.TID 0000.0001)  K=  5.0  ;  r=        82000.0  ;  phiRef/g=     1671.820
(PID.TID 0000.0001)  K=  5.5  ;  r=        80000.0  ;  phiRef/g=     1875.685
(PID.TID 0000.0001)  K=  6.0  ;  r=        78000.0  ;  phiRef/g=     2079.823
(PID.TID 0000.0001)  K=  6.5  ;  r=        76000.0  ;  phiRef/g=     2291.583
(PID.TID 0000.0001)  K=  7.0  ;  r=        74000.0  ;  phiRef/g=     2503.699
(PID.TID 0000.0001)  K=  7.5  ;  r=        72000.0  ;  phiRef/g=     2724.171
(PID.TID 0000.0001)  K=  8.0  ;  r=        70000.0  ;  phiRef/g=     2945.013
(PID.TID 0000.0001)  K=  8.5  ;  r=        68000.0  ;  phiRef/g=     3175.063
(PID.TID 0000.0001)  K=  9.0  ;  r=        66000.0  ;  phiRef/g=     3405.576
(PID.TID 0000.0001)  K=  9.5  ;  r=        64000.0  ;  phiRef/g=     3646.295
(PID.TID 0000.0001)  K= 10.0  ;  r=        62000.0  ;  phiRef/g=     3887.498
(PID.TID 0000.0001)  K= 10.5  ;  r=        60000.0  ;  phiRef/g=     4140.087
(PID.TID 0000.0001)  K= 11.0  ;  r=        58000.0  ;  phiRef/g=     4393.267
(PID.TID 0000.0001)  K= 11.5  ;  r=        56000.0  ;  phiRef/g=     4659.246
(PID.TID 0000.0001)  K= 12.0  ;  r=        54000.0  ;  phiRef/g=     4925.845
(PID.TID 0000.0001)  K= 12.5  ;  r=        52000.0  ;  phiRef/g=     5206.948
(PID.TID 0000.0001)  K= 13.0  ;  r=        50000.0  ;  phiRef/g=     5489.173
(PID.TID 0000.0001)  K= 13.5  ;  r=        48000.0  ;  phiRef/g=     5788.019
(PID.TID 0000.0001)  K= 14.0  ;  r=        46000.0  ;  phiRef/g=     6089.044
(PID.TID 0000.0001)  K= 14.5  ;  r=        44000.0  ;  phiRef/g=     6409.392
(PID.TID 0000.0001)  K= 15.0  ;  r=        42000.0  ;  phiRef/g=     6733.849
(PID.TID 0000.0001)  K= 15.5  ;  r=        40000.0  ;  phiRef/g=     7081.195
(PID.TID 0000.0001)  K= 16.0  ;  r=        38000.0  ;  phiRef/g=     7433.051
(PID.TID 0000.0001)  K= 16.5  ;  r=        36000.0  ;  phiRef/g=     7812.455
(PID.TID 0000.0001)  K= 17.0  ;  r=        34000.0  ;  phiRef/g=     8196.723
(PID.TID 0000.0001)  K= 17.5  ;  r=        32000.0  ;  phiRef/g=     8614.789
(PID.TID 0000.0001)  K= 18.0  ;  r=        30000.0  ;  phiRef/g=     9038.146
(PID.TID 0000.0001)  K= 18.5  ;  r=        28000.0  ;  phiRef/g=     9503.986
(PID.TID 0000.0001)  K= 19.0  ;  r=        26000.0  ;  phiRef/g=     9975.649
(PID.TID 0000.0001)  K= 19.5  ;  r=        24000.0  ;  phiRef/g=    10502.411
(PID.TID 0000.0001)  K= 20.0  ;  r=        22000.0  ;  phiRef/g=    11037.303
(PID.TID 0000.0001)  K= 20.5  ;  r=        20000.0  ;  phiRef/g=    11646.975
(PID.TID 0000.0001)  K= 21.0  ;  r=        18000.0  ;  phiRef/g=    12273.325
(PID.TID 0000.0001)  K= 21.5  ;  r=        16000.0  ;  phiRef/g=    13008.757
(PID.TID 0000.0001)  K= 22.0  ;  r=        14000.0  ;  phiRef/g=    13746.365
(PID.TID 0000.0001)  K= 22.5  ;  r=        12000.0  ;  phiRef/g=    14654.527
(PID.TID 0000.0001)  K= 23.0  ;  r=        10000.0  ;  phiRef/g=    15625.109
(PID.TID 0000.0001)  K= 23.5  ;  r=         8000.0  ;  phiRef/g=    16931.298
(PID.TID 0000.0001)  K= 24.0  ;  r=         6000.0  ;  phiRef/g=    18442.626
(PID.TID 0000.0001)  K= 24.5  ;  r=         4000.0  ;  phiRef/g=    21033.663
(PID.TID 0000.0001)  K= 25.0  ;  r=         2000.0  ;  phiRef/g=    24580.269
(PID.TID 0000.0001)  K= 25.5  ;  r=            0.0  ;  phiRef/g=    43816.720
(PID.TID 0000.0001) // =======================================================
(PID.TID 0000.0001) // Field Model R_low (ini_masks_etc)
(PID.TID 0000.0001) // CMIN =          1.000000000000000E+32
(PID.TID 0000.0001) // CMAX =         -1.000000000000000E+32
(PID.TID 0000.0001) // CINT =          0.000000000000000E+00
(PID.TID 0000.0001) // SYMBOLS (CMIN->CMAX): -abcdefghijklmnopqrstuvwxyz+
(PID.TID 0000.0001) //                  0.0: .
(PID.TID 0000.0001) // RANGE I (Lo:Hi:Step):(    -1:   130:     1)
(PID.TID 0000.0001) // RANGE J (Lo:Hi:Step):(    66:    -1:    -1)
(PID.TID 0000.0001) // RANGE K (Lo:Hi:Step):(   1:   1:   1)
(PID.TID 0000.0001) // =======================================================
(PID.TID 0000.0001) // =======================================================
(PID.TID 0000.0001) // END OF FIELD                                          =
(PID.TID 0000.0001) // =======================================================
(PID.TID 0000.0001) 
(PID.TID 0000.0001) // =======================================================
(PID.TID 0000.0001) // Field Model Ro_surf (ini_masks_etc)
(PID.TID 0000.0001) // CMIN =          1.000000000000000E+05
(PID.TID 0000.0001) // CMAX =          1.000000000000000E+05
(PID.TID 0000.0001) // CINT =          0.000000000000000E+00
(PID.TID 0000.0001) // SYMBOLS (CMIN->CMAX): -abcdefghijklmnopqrstuvwxyz+
(PID.TID 0000.0001) //                  0.0: .
(PID.TID 0000.0001) // RANGE I (Lo:Hi:Step):(    -1:   130:     1)
(PID.TID 0000.0001) // RANGE J (Lo:Hi:Step):(    66:    -1:    -1)
(PID.TID 0000.0001) // RANGE K (Lo:Hi:Step):(   1:   1:   1)
(PID.TID 0000.0001) // =======================================================
(PID.TID 0000.0001) // =======================================================
(PID.TID 0000.0001) // END OF FIELD                                          =
(PID.TID 0000.0001) // =======================================================
(PID.TID 0000.0001) 
(PID.TID 0000.0001) // =======================================================
(PID.TID 0000.0001) // Field hFacC at iteration          0
(PID.TID 0000.0001) // CMIN =          1.000000000000000E+00
(PID.TID 0000.0001) // CMAX =          1.000000000000000E+00
(PID.TID 0000.0001) // CINT =          0.000000000000000E+00
(PID.TID 0000.0001) // SYMBOLS (CMIN->CMAX): -abcdefghijklmnopqrstuvwxyz+
(PID.TID 0000.0001) //                  0.0: .
(PID.TID 0000.0001) // RANGE I (Lo:Hi:Step):(    -1:   130:     1)
(PID.TID 0000.0001) // RANGE J (Lo:Hi:Step):(    66:    -1:    -1)
(PID.TID 0000.0001) // RANGE K (Lo:Hi:Step):(   1:   1:   1)
(PID.TID 0000.0001) // =======================================================
(PID.TID 0000.0001) // =======================================================
(PID.TID 0000.0001) // END OF FIELD                                          =
(PID.TID 0000.0001) // =======================================================
(PID.TID 0000.0001) 
(PID.TID 0000.0001) // =======================================================
(PID.TID 0000.0001) // Field hFacW at iteration          0
(PID.TID 0000.0001) // CMIN =          1.000000000000000E+00
(PID.TID 0000.0001) // CMAX =          1.000000000000000E+00
(PID.TID 0000.0001) // CINT =          0.000000000000000E+00
(PID.TID 0000.0001) // SYMBOLS (CMIN->CMAX): -abcdefghijklmnopqrstuvwxyz+
(PID.TID 0000.0001) //                  0.0: .
(PID.TID 0000.0001) // RANGE I (Lo:Hi:Step):(    -1:   130:     1)
(PID.TID 0000.0001) // RANGE J (Lo:Hi:Step):(    66:    -1:    -1)
(PID.TID 0000.0001) // RANGE K (Lo:Hi:Step):(   1:   1:   1)
(PID.TID 0000.0001) // =======================================================
(PID.TID 0000.0001) // =======================================================
(PID.TID 0000.0001) // END OF FIELD                                          =
(PID.TID 0000.0001) // =======================================================
(PID.TID 0000.0001) 
(PID.TID 0000.0001) // =======================================================
(PID.TID 0000.0001) // Field hFacS at iteration          0
(PID.TID 0000.0001) // CMIN =          1.000000000000000E+00
(PID.TID 0000.0001) // CMAX =          1.000000000000000E+00
(PID.TID 0000.0001) // CINT =          0.000000000000000E+00
(PID.TID 0000.0001) // SYMBOLS (CMIN->CMAX): -abcdefghijklmnopqrstuvwxyz+
(PID.TID 0000.0001) //                  0.0: .
(PID.TID 0000.0001) // RANGE I (Lo:Hi:Step):(    -1:   130:     1)
(PID.TID 0000.0001) // RANGE J (Lo:Hi:Step):(    66:    -1:    -1)
(PID.TID 0000.0001) // RANGE K (Lo:Hi:Step):(   1:   1:   1)
(PID.TID 0000.0001) // =======================================================
(PID.TID 0000.0001) // =======================================================
(PID.TID 0000.0001) // END OF FIELD                                          =
(PID.TID 0000.0001) // =======================================================
(PID.TID 0000.0001) 
(PID.TID 0000.0001) GAD_INIT_FIXED: GAD_OlMinSize=  2  0  1
(PID.TID 0000.0001) 
(PID.TID 0000.0001) // ===================================
(PID.TID 0000.0001) // GAD parameters :
(PID.TID 0000.0001) // ===================================
(PID.TID 0000.0001) tempAdvScheme =   /* Temp. Horiz.Advection scheme selector */
(PID.TID 0000.0001)                       2
(PID.TID 0000.0001)     ;
(PID.TID 0000.0001) tempVertAdvScheme =   /* Temp. Vert. Advection scheme selector */
(PID.TID 0000.0001)                       2
(PID.TID 0000.0001)     ;
(PID.TID 0000.0001) tempMultiDimAdvec =   /* use Muti-Dim Advec method for Temp */
(PID.TID 0000.0001)                   F
(PID.TID 0000.0001)     ;
(PID.TID 0000.0001) tempSOM_Advection = /* use 2nd Order Moment Advection for Temp */
(PID.TID 0000.0001)                   F
(PID.TID 0000.0001)     ;
(PID.TID 0000.0001) AdamsBashforthGt = /* apply Adams-Bashforth extrapolation on Gt */
(PID.TID 0000.0001)                   T
(PID.TID 0000.0001)     ;
(PID.TID 0000.0001) AdamsBashforth_T = /* apply Adams-Bashforth extrapolation on Temp */
(PID.TID 0000.0001)                   F
(PID.TID 0000.0001)     ;
(PID.TID 0000.0001) saltAdvScheme =   /* Salt. Horiz.advection scheme selector */
(PID.TID 0000.0001)                      77
(PID.TID 0000.0001)     ;
(PID.TID 0000.0001) saltVertAdvScheme =   /* Salt. Vert. Advection scheme selector */
(PID.TID 0000.0001)                      77
(PID.TID 0000.0001)     ;
(PID.TID 0000.0001) saltMultiDimAdvec =   /* use Muti-Dim Advec method for Salt */
(PID.TID 0000.0001)                   T
(PID.TID 0000.0001)     ;
(PID.TID 0000.0001) saltSOM_Advection = /* use 2nd Order Moment Advection for Salt */
(PID.TID 0000.0001)                   F
(PID.TID 0000.0001)     ;
(PID.TID 0000.0001) AdamsBashforthGs = /* apply Adams-Bashforth extrapolation on Gs */
(PID.TID 0000.0001)                   F
(PID.TID 0000.0001)     ;
(PID.TID 0000.0001) AdamsBashforth_S = /* apply Adams-Bashforth extrapolation on Salt */
(PID.TID 0000.0001)                   F
(PID.TID 0000.0001)     ;
(PID.TID 0000.0001) // ===================================
(PID.TID 0000.0001) MYPACKAGE_INIT_FIXED: opening data.atm_gray
(PID.TID 0000.0001)  OPEN_COPY_DATA_FILE: opening file data.atm_gray
(PID.TID 0000.0001) // =======================================================
(PID.TID 0000.0001) // Parameter file "data.atm_gray"
(PID.TID 0000.0001) // =======================================================
(PID.TID 0000.0001) >
(PID.TID 0000.0001) > &atmosphere_nml
(PID.TID 0000.0001) >    turb = .TRUE.,
(PID.TID 0000.0001) >    ldry_convection = .false.,
(PID.TID 0000.0001) >    lwet_convection = .TRUE.,
(PID.TID 0000.0001) >    do_virtual = .false.,
(PID.TID 0000.0001) >    two_stream = .true.,
(PID.TID 0000.0001) >    mixed_layer_bc = .false.,
(PID.TID 0000.0001) >    roughness_heat = 0.05,
(PID.TID 0000.0001) >    roughness_moist = 0.05,
(PID.TID 0000.0001) >    roughness_mom = 0.05,
(PID.TID 0000.0001) > /
(PID.TID 0000.0001) >
(PID.TID 0000.0001) > &radiation_nml
(PID.TID 0000.0001) ># solar_constant=
(PID.TID 0000.0001) ># del_sol=
(PID.TID 0000.0001) ># ir_tau_eq=
(PID.TID 0000.0001) ># ir_tau_pole=
(PID.TID 0000.0001) ># atm_abs=
(PID.TID 0000.0001) ># sw_diff=
(PID.TID 0000.0001) ># linear_tau=
(PID.TID 0000.0001) ># del_sw=
(PID.TID 0000.0001) ># albedo_value=
(PID.TID 0000.0001) ># window=
(PID.TID 0000.0001) ># wv_exponent=
(PID.TID 0000.0001) ># solar_exponent=
(PID.TID 0000.0001) > /
(PID.TID 0000.0001) >
(PID.TID 0000.0001) > &lscale_cond_nml
(PID.TID 0000.0001) ># hc =
(PID.TID 0000.0001) ># do_evap=
(PID.TID 0000.0001) > /
(PID.TID 0000.0001) >
(PID.TID 0000.0001) > &dargan_bettsmiller_nml
(PID.TID 0000.0001) >#  tau_bm =,
(PID.TID 0000.0001) >#  rhbm =,
(PID.TID 0000.0001) >#  do_shallower=,
(PID.TID 0000.0001) >#  do_changeqref=,
(PID.TID 0000.0001) >#  do_envsat=,
(PID.TID 0000.0001) >#  do_taucape=,
(PID.TID 0000.0001) >#  capetaubm=,
(PID.TID 0000.0001) >#  tau_min =,
(PID.TID 0000.0001) >#  do_virtual=,
(PID.TID 0000.0001) >#  do_bm_shift=,
(PID.TID 0000.0001) > /
(PID.TID 0000.0001) >
(PID.TID 0000.0001) > &surface_flux_nml
(PID.TID 0000.0001) > /
(PID.TID 0000.0001) >
(PID.TID 0000.0001) > &vert_turb_driver_nml
(PID.TID 0000.0001) >#  do_shallow_conv, do_mellor_yamada,
(PID.TID 0000.0001) >#  gust_scheme, constant_gust, use_tau,
(PID.TID 0000.0001) >#  do_molecular_diffusion
(PID.TID 0000.0001) >  do_mellor_yamada=.FALSE.,
(PID.TID 0000.0001) > /
(PID.TID 0000.0001) >
(PID.TID 0000.0001) > &diffusivity_nml
(PID.TID 0000.0001) >#  fixed_depth, depth_0, frac_inner,
(PID.TID 0000.0001) >#  rich_crit_pbl, entr_ratio, parcel_buoy,
(PID.TID 0000.0001) >#  znom, free_atm_diff, free_atm_skyhi_diff,
(PID.TID 0000.0001) >#  pbl_mcm, rich_crit_diff, mix_len, rich_prandtl,
(PID.TID 0000.0001) >#  background_m, background_t, ampns, ampns_max,
(PID.TID 0000.0001) >#  do_virtual_non_mcm
(PID.TID 0000.0001) > /
(PID.TID 0000.0001) >
(PID.TID 0000.0001) > &monin_obukhov_nml
(PID.TID 0000.0001) > /
(PID.TID 0000.0001) >
(PID.TID 0000.0001) > &my25_turb_nml
(PID.TID 0000.0001) > /
(PID.TID 0000.0001) >
(PID.TID 0000.0001) > &shallow_conv_nml
(PID.TID 0000.0001) > /
(PID.TID 0000.0001) >
(PID.TID 0000.0001) > &mixed_layer_nml
(PID.TID 0000.0001) ># evaporation, qflux_amp, depth, qflux_width
(PID.TID 0000.0001) >  depth=5000.,
(PID.TID 0000.0001) > /
(PID.TID 0000.0001) 
(PID.TID 0000.0001) MYPACKAGE_INIT_FIXED: finished reading data.atm_gray
(PID.TID 0000.0001) MIXED_LAYER_INIT: opening data.atm_gray
(PID.TID 0000.0001)  OPEN_COPY_DATA_FILE: opening file data.atm_gray
(PID.TID 0000.0001) // =======================================================
(PID.TID 0000.0001) // Parameter file "data.atm_gray"
(PID.TID 0000.0001) // =======================================================
(PID.TID 0000.0001) >
(PID.TID 0000.0001) > &atmosphere_nml
(PID.TID 0000.0001) >    turb = .TRUE.,
(PID.TID 0000.0001) >    ldry_convection = .false.,
(PID.TID 0000.0001) >    lwet_convection = .TRUE.,
(PID.TID 0000.0001) >    do_virtual = .false.,
(PID.TID 0000.0001) >    two_stream = .true.,
(PID.TID 0000.0001) >    mixed_layer_bc = .false.,
(PID.TID 0000.0001) >    roughness_heat = 0.05,
(PID.TID 0000.0001) >    roughness_moist = 0.05,
(PID.TID 0000.0001) >    roughness_mom = 0.05,
(PID.TID 0000.0001) > /
(PID.TID 0000.0001) >
(PID.TID 0000.0001) > &radiation_nml
(PID.TID 0000.0001) ># solar_constant=
(PID.TID 0000.0001) ># del_sol=
(PID.TID 0000.0001) ># ir_tau_eq=
(PID.TID 0000.0001) ># ir_tau_pole=
(PID.TID 0000.0001) ># atm_abs=
(PID.TID 0000.0001) ># sw_diff=
(PID.TID 0000.0001) ># linear_tau=
(PID.TID 0000.0001) ># del_sw=
(PID.TID 0000.0001) ># albedo_value=
(PID.TID 0000.0001) ># window=
(PID.TID 0000.0001) ># wv_exponent=
(PID.TID 0000.0001) ># solar_exponent=
(PID.TID 0000.0001) > /
(PID.TID 0000.0001) >
(PID.TID 0000.0001) > &lscale_cond_nml
(PID.TID 0000.0001) ># hc =
(PID.TID 0000.0001) ># do_evap=
(PID.TID 0000.0001) > /
(PID.TID 0000.0001) >
(PID.TID 0000.0001) > &dargan_bettsmiller_nml
(PID.TID 0000.0001) >#  tau_bm =,
(PID.TID 0000.0001) >#  rhbm =,
(PID.TID 0000.0001) >#  do_shallower=,
(PID.TID 0000.0001) >#  do_changeqref=,
(PID.TID 0000.0001) >#  do_envsat=,
(PID.TID 0000.0001) >#  do_taucape=,
(PID.TID 0000.0001) >#  capetaubm=,
(PID.TID 0000.0001) >#  tau_min =,
(PID.TID 0000.0001) >#  do_virtual=,
(PID.TID 0000.0001) >#  do_bm_shift=,
(PID.TID 0000.0001) > /
(PID.TID 0000.0001) >
(PID.TID 0000.0001) > &surface_flux_nml
(PID.TID 0000.0001) > /
(PID.TID 0000.0001) >
(PID.TID 0000.0001) > &vert_turb_driver_nml
(PID.TID 0000.0001) >#  do_shallow_conv, do_mellor_yamada,
(PID.TID 0000.0001) >#  gust_scheme, constant_gust, use_tau,
(PID.TID 0000.0001) >#  do_molecular_diffusion
(PID.TID 0000.0001) >  do_mellor_yamada=.FALSE.,
(PID.TID 0000.0001) > /
(PID.TID 0000.0001) >
(PID.TID 0000.0001) > &diffusivity_nml
(PID.TID 0000.0001) >#  fixed_depth, depth_0, frac_inner,
(PID.TID 0000.0001) >#  rich_crit_pbl, entr_ratio, parcel_buoy,
(PID.TID 0000.0001) >#  znom, free_atm_diff, free_atm_skyhi_diff,
(PID.TID 0000.0001) >#  pbl_mcm, rich_crit_diff, mix_len, rich_prandtl,
(PID.TID 0000.0001) >#  background_m, background_t, ampns, ampns_max,
(PID.TID 0000.0001) >#  do_virtual_non_mcm
(PID.TID 0000.0001) > /
(PID.TID 0000.0001) >
(PID.TID 0000.0001) > &monin_obukhov_nml
(PID.TID 0000.0001) > /
(PID.TID 0000.0001) >
(PID.TID 0000.0001) > &my25_turb_nml
(PID.TID 0000.0001) > /
(PID.TID 0000.0001) >
(PID.TID 0000.0001) > &shallow_conv_nml
(PID.TID 0000.0001) > /
(PID.TID 0000.0001) >
(PID.TID 0000.0001) > &mixed_layer_nml
(PID.TID 0000.0001) ># evaporation, qflux_amp, depth, qflux_width
(PID.TID 0000.0001) >  depth=5000.,
(PID.TID 0000.0001) > /
(PID.TID 0000.0001) 
(PID.TID 0000.0001) MIXED_LAYER_INIT: finished reading data.atm_gray
(PID.TID 0000.0001) LSCALE_COND_INIT: opening data.atm_gray
(PID.TID 0000.0001)  OPEN_COPY_DATA_FILE: opening file data.atm_gray
(PID.TID 0000.0001) // =======================================================
(PID.TID 0000.0001) // Parameter file "data.atm_gray"
(PID.TID 0000.0001) // =======================================================
(PID.TID 0000.0001) >
(PID.TID 0000.0001) > &atmosphere_nml
(PID.TID 0000.0001) >    turb = .TRUE.,
(PID.TID 0000.0001) >    ldry_convection = .false.,
(PID.TID 0000.0001) >    lwet_convection = .TRUE.,
(PID.TID 0000.0001) >    do_virtual = .false.,
(PID.TID 0000.0001) >    two_stream = .true.,
(PID.TID 0000.0001) >    mixed_layer_bc = .false.,
(PID.TID 0000.0001) >    roughness_heat = 0.05,
(PID.TID 0000.0001) >    roughness_moist = 0.05,
(PID.TID 0000.0001) >    roughness_mom = 0.05,
(PID.TID 0000.0001) > /
(PID.TID 0000.0001) >
(PID.TID 0000.0001) > &radiation_nml
(PID.TID 0000.0001) ># solar_constant=
(PID.TID 0000.0001) ># del_sol=
(PID.TID 0000.0001) ># ir_tau_eq=
(PID.TID 0000.0001) ># ir_tau_pole=
(PID.TID 0000.0001) ># atm_abs=
(PID.TID 0000.0001) ># sw_diff=
(PID.TID 0000.0001) ># linear_tau=
(PID.TID 0000.0001) ># del_sw=
(PID.TID 0000.0001) ># albedo_value=
(PID.TID 0000.0001) ># window=
(PID.TID 0000.0001) ># wv_exponent=
(PID.TID 0000.0001) ># solar_exponent=
(PID.TID 0000.0001) > /
(PID.TID 0000.0001) >
(PID.TID 0000.0001) > &lscale_cond_nml
(PID.TID 0000.0001) ># hc =
(PID.TID 0000.0001) ># do_evap=
(PID.TID 0000.0001) > /
(PID.TID 0000.0001) >
(PID.TID 0000.0001) > &dargan_bettsmiller_nml
(PID.TID 0000.0001) >#  tau_bm =,
(PID.TID 0000.0001) >#  rhbm =,
(PID.TID 0000.0001) >#  do_shallower=,
(PID.TID 0000.0001) >#  do_changeqref=,
(PID.TID 0000.0001) >#  do_envsat=,
(PID.TID 0000.0001) >#  do_taucape=,
(PID.TID 0000.0001) >#  capetaubm=,
(PID.TID 0000.0001) >#  tau_min =,
(PID.TID 0000.0001) >#  do_virtual=,
(PID.TID 0000.0001) >#  do_bm_shift=,
(PID.TID 0000.0001) > /
(PID.TID 0000.0001) >
(PID.TID 0000.0001) > &surface_flux_nml
(PID.TID 0000.0001) > /
(PID.TID 0000.0001) >
(PID.TID 0000.0001) > &vert_turb_driver_nml
(PID.TID 0000.0001) >#  do_shallow_conv, do_mellor_yamada,
(PID.TID 0000.0001) >#  gust_scheme, constant_gust, use_tau,
(PID.TID 0000.0001) >#  do_molecular_diffusion
(PID.TID 0000.0001) >  do_mellor_yamada=.FALSE.,
(PID.TID 0000.0001) > /
(PID.TID 0000.0001) >
(PID.TID 0000.0001) > &diffusivity_nml
(PID.TID 0000.0001) >#  fixed_depth, depth_0, frac_inner,
(PID.TID 0000.0001) >#  rich_crit_pbl, entr_ratio, parcel_buoy,
(PID.TID 0000.0001) >#  znom, free_atm_diff, free_atm_skyhi_diff,
(PID.TID 0000.0001) >#  pbl_mcm, rich_crit_diff, mix_len, rich_prandtl,
(PID.TID 0000.0001) >#  background_m, background_t, ampns, ampns_max,
(PID.TID 0000.0001) >#  do_virtual_non_mcm
(PID.TID 0000.0001) > /
(PID.TID 0000.0001) >
(PID.TID 0000.0001) > &monin_obukhov_nml
(PID.TID 0000.0001) > /
(PID.TID 0000.0001) >
(PID.TID 0000.0001) > &my25_turb_nml
(PID.TID 0000.0001) > /
(PID.TID 0000.0001) >
(PID.TID 0000.0001) > &shallow_conv_nml
(PID.TID 0000.0001) > /
(PID.TID 0000.0001) >
(PID.TID 0000.0001) > &mixed_layer_nml
(PID.TID 0000.0001) ># evaporation, qflux_amp, depth, qflux_width
(PID.TID 0000.0001) >  depth=5000.,
(PID.TID 0000.0001) > /
(PID.TID 0000.0001) 
(PID.TID 0000.0001) LSCALE_COND_INIT: finished reading data.atm_gray
(PID.TID 0000.0001) DARGAN_BETTSMILLER_init: opening data.atm_gray
(PID.TID 0000.0001)  OPEN_COPY_DATA_FILE: opening file data.atm_gray
(PID.TID 0000.0001) // =======================================================
(PID.TID 0000.0001) // Parameter file "data.atm_gray"
(PID.TID 0000.0001) // =======================================================
(PID.TID 0000.0001) >
(PID.TID 0000.0001) > &atmosphere_nml
(PID.TID 0000.0001) >    turb = .TRUE.,
(PID.TID 0000.0001) >    ldry_convection = .false.,
(PID.TID 0000.0001) >    lwet_convection = .TRUE.,
(PID.TID 0000.0001) >    do_virtual = .false.,
(PID.TID 0000.0001) >    two_stream = .true.,
(PID.TID 0000.0001) >    mixed_layer_bc = .false.,
(PID.TID 0000.0001) >    roughness_heat = 0.05,
(PID.TID 0000.0001) >    roughness_moist = 0.05,
(PID.TID 0000.0001) >    roughness_mom = 0.05,
(PID.TID 0000.0001) > /
(PID.TID 0000.0001) >
(PID.TID 0000.0001) > &radiation_nml
(PID.TID 0000.0001) ># solar_constant=
(PID.TID 0000.0001) ># del_sol=
(PID.TID 0000.0001) ># ir_tau_eq=
(PID.TID 0000.0001) ># ir_tau_pole=
(PID.TID 0000.0001) ># atm_abs=
(PID.TID 0000.0001) ># sw_diff=
(PID.TID 0000.0001) ># linear_tau=
(PID.TID 0000.0001) ># del_sw=
(PID.TID 0000.0001) ># albedo_value=
(PID.TID 0000.0001) ># window=
(PID.TID 0000.0001) ># wv_exponent=
(PID.TID 0000.0001) ># solar_exponent=
(PID.TID 0000.0001) > /
(PID.TID 0000.0001) >
(PID.TID 0000.0001) > &lscale_cond_nml
(PID.TID 0000.0001) ># hc =
(PID.TID 0000.0001) ># do_evap=
(PID.TID 0000.0001) > /
(PID.TID 0000.0001) >
(PID.TID 0000.0001) > &dargan_bettsmiller_nml
(PID.TID 0000.0001) >#  tau_bm =,
(PID.TID 0000.0001) >#  rhbm =,
(PID.TID 0000.0001) >#  do_shallower=,
(PID.TID 0000.0001) >#  do_changeqref=,
(PID.TID 0000.0001) >#  do_envsat=,
(PID.TID 0000.0001) >#  do_taucape=,
(PID.TID 0000.0001) >#  capetaubm=,
(PID.TID 0000.0001) >#  tau_min =,
(PID.TID 0000.0001) >#  do_virtual=,
(PID.TID 0000.0001) >#  do_bm_shift=,
(PID.TID 0000.0001) > /
(PID.TID 0000.0001) >
(PID.TID 0000.0001) > &surface_flux_nml
(PID.TID 0000.0001) > /
(PID.TID 0000.0001) >
(PID.TID 0000.0001) > &vert_turb_driver_nml
(PID.TID 0000.0001) >#  do_shallow_conv, do_mellor_yamada,
(PID.TID 0000.0001) >#  gust_scheme, constant_gust, use_tau,
(PID.TID 0000.0001) >#  do_molecular_diffusion
(PID.TID 0000.0001) >  do_mellor_yamada=.FALSE.,
(PID.TID 0000.0001) > /
(PID.TID 0000.0001) >
(PID.TID 0000.0001) > &diffusivity_nml
(PID.TID 0000.0001) >#  fixed_depth, depth_0, frac_inner,
(PID.TID 0000.0001) >#  rich_crit_pbl, entr_ratio, parcel_buoy,
(PID.TID 0000.0001) >#  znom, free_atm_diff, free_atm_skyhi_diff,
(PID.TID 0000.0001) >#  pbl_mcm, rich_crit_diff, mix_len, rich_prandtl,
(PID.TID 0000.0001) >#  background_m, background_t, ampns, ampns_max,
(PID.TID 0000.0001) >#  do_virtual_non_mcm
(PID.TID 0000.0001) > /
(PID.TID 0000.0001) >
(PID.TID 0000.0001) > &monin_obukhov_nml
(PID.TID 0000.0001) > /
(PID.TID 0000.0001) >
(PID.TID 0000.0001) > &my25_turb_nml
(PID.TID 0000.0001) > /
(PID.TID 0000.0001) >
(PID.TID 0000.0001) > &shallow_conv_nml
(PID.TID 0000.0001) > /
(PID.TID 0000.0001) >
(PID.TID 0000.0001) > &mixed_layer_nml
(PID.TID 0000.0001) ># evaporation, qflux_amp, depth, qflux_width
(PID.TID 0000.0001) >  depth=5000.,
(PID.TID 0000.0001) > /
(PID.TID 0000.0001) 
(PID.TID 0000.0001) DARGAB_BETTSMILLER_INIT: finished reading data.atm_gray
(PID.TID 0000.0001) RADIATION_INIT: opening data.atm_gray
(PID.TID 0000.0001)  OPEN_COPY_DATA_FILE: opening file data.atm_gray
(PID.TID 0000.0001) // =======================================================
(PID.TID 0000.0001) // Parameter file "data.atm_gray"
(PID.TID 0000.0001) // =======================================================
(PID.TID 0000.0001) >
(PID.TID 0000.0001) > &atmosphere_nml
(PID.TID 0000.0001) >    turb = .TRUE.,
(PID.TID 0000.0001) >    ldry_convection = .false.,
(PID.TID 0000.0001) >    lwet_convection = .TRUE.,
(PID.TID 0000.0001) >    do_virtual = .false.,
(PID.TID 0000.0001) >    two_stream = .true.,
(PID.TID 0000.0001) >    mixed_layer_bc = .false.,
(PID.TID 0000.0001) >    roughness_heat = 0.05,
(PID.TID 0000.0001) >    roughness_moist = 0.05,
(PID.TID 0000.0001) >    roughness_mom = 0.05,
(PID.TID 0000.0001) > /
(PID.TID 0000.0001) >
(PID.TID 0000.0001) > &radiation_nml
(PID.TID 0000.0001) ># solar_constant=
(PID.TID 0000.0001) ># del_sol=
(PID.TID 0000.0001) ># ir_tau_eq=
(PID.TID 0000.0001) ># ir_tau_pole=
(PID.TID 0000.0001) ># atm_abs=
(PID.TID 0000.0001) ># sw_diff=
(PID.TID 0000.0001) ># linear_tau=
(PID.TID 0000.0001) ># del_sw=
(PID.TID 0000.0001) ># albedo_value=
(PID.TID 0000.0001) ># window=
(PID.TID 0000.0001) ># wv_exponent=
(PID.TID 0000.0001) ># solar_exponent=
(PID.TID 0000.0001) > /
(PID.TID 0000.0001) >
(PID.TID 0000.0001) > &lscale_cond_nml
(PID.TID 0000.0001) ># hc =
(PID.TID 0000.0001) ># do_evap=
(PID.TID 0000.0001) > /
(PID.TID 0000.0001) >
(PID.TID 0000.0001) > &dargan_bettsmiller_nml
(PID.TID 0000.0001) >#  tau_bm =,
(PID.TID 0000.0001) >#  rhbm =,
(PID.TID 0000.0001) >#  do_shallower=,
(PID.TID 0000.0001) >#  do_changeqref=,
(PID.TID 0000.0001) >#  do_envsat=,
(PID.TID 0000.0001) >#  do_taucape=,
(PID.TID 0000.0001) >#  capetaubm=,
(PID.TID 0000.0001) >#  tau_min =,
(PID.TID 0000.0001) >#  do_virtual=,
(PID.TID 0000.0001) >#  do_bm_shift=,
(PID.TID 0000.0001) > /
(PID.TID 0000.0001) >
(PID.TID 0000.0001) > &surface_flux_nml
(PID.TID 0000.0001) > /
(PID.TID 0000.0001) >
(PID.TID 0000.0001) > &vert_turb_driver_nml
(PID.TID 0000.0001) >#  do_shallow_conv, do_mellor_yamada,
(PID.TID 0000.0001) >#  gust_scheme, constant_gust, use_tau,
(PID.TID 0000.0001) >#  do_molecular_diffusion
(PID.TID 0000.0001) >  do_mellor_yamada=.FALSE.,
(PID.TID 0000.0001) > /
(PID.TID 0000.0001) >
(PID.TID 0000.0001) > &diffusivity_nml
(PID.TID 0000.0001) >#  fixed_depth, depth_0, frac_inner,
(PID.TID 0000.0001) >#  rich_crit_pbl, entr_ratio, parcel_buoy,
(PID.TID 0000.0001) >#  znom, free_atm_diff, free_atm_skyhi_diff,
(PID.TID 0000.0001) >#  pbl_mcm, rich_crit_diff, mix_len, rich_prandtl,
(PID.TID 0000.0001) >#  background_m, background_t, ampns, ampns_max,
(PID.TID 0000.0001) >#  do_virtual_non_mcm
(PID.TID 0000.0001) > /
(PID.TID 0000.0001) >
(PID.TID 0000.0001) > &monin_obukhov_nml
(PID.TID 0000.0001) > /
(PID.TID 0000.0001) >
(PID.TID 0000.0001) > &my25_turb_nml
(PID.TID 0000.0001) > /
(PID.TID 0000.0001) >
(PID.TID 0000.0001) > &shallow_conv_nml
(PID.TID 0000.0001) > /
(PID.TID 0000.0001) >
(PID.TID 0000.0001) > &mixed_layer_nml
(PID.TID 0000.0001) ># evaporation, qflux_amp, depth, qflux_width
(PID.TID 0000.0001) >  depth=5000.,
(PID.TID 0000.0001) > /
(PID.TID 0000.0001) 
(PID.TID 0000.0001) RADIATION_INIT: finished reading data.atm_gray
(PID.TID 0000.0001) VERT_TURB_DRIVER_INIT: opening data.atm_gray
(PID.TID 0000.0001)  OPEN_COPY_DATA_FILE: opening file data.atm_gray
(PID.TID 0000.0001) // =======================================================
(PID.TID 0000.0001) // Parameter file "data.atm_gray"
(PID.TID 0000.0001) // =======================================================
(PID.TID 0000.0001) >
(PID.TID 0000.0001) > &atmosphere_nml
(PID.TID 0000.0001) >    turb = .TRUE.,
(PID.TID 0000.0001) >    ldry_convection = .false.,
(PID.TID 0000.0001) >    lwet_convection = .TRUE.,
(PID.TID 0000.0001) >    do_virtual = .false.,
(PID.TID 0000.0001) >    two_stream = .true.,
(PID.TID 0000.0001) >    mixed_layer_bc = .false.,
(PID.TID 0000.0001) >    roughness_heat = 0.05,
(PID.TID 0000.0001) >    roughness_moist = 0.05,
(PID.TID 0000.0001) >    roughness_mom = 0.05,
(PID.TID 0000.0001) > /
(PID.TID 0000.0001) >
(PID.TID 0000.0001) > &radiation_nml
(PID.TID 0000.0001) ># solar_constant=
(PID.TID 0000.0001) ># del_sol=
(PID.TID 0000.0001) ># ir_tau_eq=
(PID.TID 0000.0001) ># ir_tau_pole=
(PID.TID 0000.0001) ># atm_abs=
(PID.TID 0000.0001) ># sw_diff=
(PID.TID 0000.0001) ># linear_tau=
(PID.TID 0000.0001) ># del_sw=
(PID.TID 0000.0001) ># albedo_value=
(PID.TID 0000.0001) ># window=
(PID.TID 0000.0001) ># wv_exponent=
(PID.TID 0000.0001) ># solar_exponent=
(PID.TID 0000.0001) > /
(PID.TID 0000.0001) >
(PID.TID 0000.0001) > &lscale_cond_nml
(PID.TID 0000.0001) ># hc =
(PID.TID 0000.0001) ># do_evap=
(PID.TID 0000.0001) > /
(PID.TID 0000.0001) >
(PID.TID 0000.0001) > &dargan_bettsmiller_nml
(PID.TID 0000.0001) >#  tau_bm =,
(PID.TID 0000.0001) >#  rhbm =,
(PID.TID 0000.0001) >#  do_shallower=,
(PID.TID 0000.0001) >#  do_changeqref=,
(PID.TID 0000.0001) >#  do_envsat=,
(PID.TID 0000.0001) >#  do_taucape=,
(PID.TID 0000.0001) >#  capetaubm=,
(PID.TID 0000.0001) >#  tau_min =,
(PID.TID 0000.0001) >#  do_virtual=,
(PID.TID 0000.0001) >#  do_bm_shift=,
(PID.TID 0000.0001) > /
(PID.TID 0000.0001) >
(PID.TID 0000.0001) > &surface_flux_nml
(PID.TID 0000.0001) > /
(PID.TID 0000.0001) >
(PID.TID 0000.0001) > &vert_turb_driver_nml
(PID.TID 0000.0001) >#  do_shallow_conv, do_mellor_yamada,
(PID.TID 0000.0001) >#  gust_scheme, constant_gust, use_tau,
(PID.TID 0000.0001) >#  do_molecular_diffusion
(PID.TID 0000.0001) >  do_mellor_yamada=.FALSE.,
(PID.TID 0000.0001) > /
(PID.TID 0000.0001) >
(PID.TID 0000.0001) > &diffusivity_nml
(PID.TID 0000.0001) >#  fixed_depth, depth_0, frac_inner,
(PID.TID 0000.0001) >#  rich_crit_pbl, entr_ratio, parcel_buoy,
(PID.TID 0000.0001) >#  znom, free_atm_diff, free_atm_skyhi_diff,
(PID.TID 0000.0001) >#  pbl_mcm, rich_crit_diff, mix_len, rich_prandtl,
(PID.TID 0000.0001) >#  background_m, background_t, ampns, ampns_max,
(PID.TID 0000.0001) >#  do_virtual_non_mcm
(PID.TID 0000.0001) > /
(PID.TID 0000.0001) >
(PID.TID 0000.0001) > &monin_obukhov_nml
(PID.TID 0000.0001) > /
(PID.TID 0000.0001) >
(PID.TID 0000.0001) > &my25_turb_nml
(PID.TID 0000.0001) > /
(PID.TID 0000.0001) >
(PID.TID 0000.0001) > &shallow_conv_nml
(PID.TID 0000.0001) > /
(PID.TID 0000.0001) >
(PID.TID 0000.0001) > &mixed_layer_nml
(PID.TID 0000.0001) ># evaporation, qflux_amp, depth, qflux_width
(PID.TID 0000.0001) >  depth=5000.,
(PID.TID 0000.0001) > /
(PID.TID 0000.0001) 
(PID.TID 0000.0001) VERT_TURB_DRIVER_INIT: finished reading data.atm_gray
(PID.TID 0000.0001) ------------------------------------------------------------
(PID.TID 0000.0001) DIAGNOSTICS_SET_LEVELS: done
(PID.TID 0000.0001)  Total Nb of available Diagnostics: ndiagt=   217
(PID.TID 0000.0001)  write list of available Diagnostics to file: available_diagnostics.log
(PID.TID 0000.0001) SETDIAG: Allocate  1 x  1 Levels for Diagnostic #    23 ETAN
(PID.TID 0000.0001) SETDIAG: Allocate  1 x  1 Levels for Diagnostic #    24 ETANSQ
(PID.TID 0000.0001) SETDIAG: Allocate  1 x  1 Levels for Diagnostic #    25 DETADT2
(PID.TID 0000.0001) SETDIAG: Allocate  1 x  1 Levels for Diagnostic #   204 AtPhCnvP
(PID.TID 0000.0001) SETDIAG: Allocate  1 x  1 Levels for Diagnostic #   205 AtPhLscP
(PID.TID 0000.0001) SETDIAG: Allocate  1 x  1 Levels for Diagnostic #   211 AtPhSens
(PID.TID 0000.0001) SETDIAG: Allocate  1 x  1 Levels for Diagnostic #   212 AtPhEvap
(PID.TID 0000.0001) SETDIAG: Allocate  1 x  1 Levels for Diagnostic #   213 AtPhTauX
(PID.TID 0000.0001) SETDIAG: Allocate  1 x  1 Levels for Diagnostic #   214 AtPhTauY
(PID.TID 0000.0001) SETDIAG: Allocate 25 x  1 Levels for Diagnostic #    29 UVEL
(PID.TID 0000.0001) SETDIAG: Allocate 25 x  1 Levels for Diagnostic #    30 VVEL
(PID.TID 0000.0001) SETDIAG: Allocate 25 x  1 Levels for Diagnostic #    31 WVEL
(PID.TID 0000.0001) SETDIAG: Allocate 25 x  1 Levels for Diagnostic #    26 THETA
(PID.TID 0000.0001) SETDIAG: Allocate 25 x  1 Levels for Diagnostic #    27 SALT
(PID.TID 0000.0001) SETDIAG: Allocate 25 x  1 Levels for Diagnostic #   198 AtPhdTdt
(PID.TID 0000.0001) SETDIAG: Allocate 25 x  1 Levels for Diagnostic #   199 AtPhdQdt
(PID.TID 0000.0001) SETDIAG: Allocate 25 x  1 Levels for Diagnostic #   200 AtPhdUdt
(PID.TID 0000.0001) SETDIAG: Allocate 25 x  1 Levels for Diagnostic #   201 AtPhdVdt
(PID.TID 0000.0001) SETDIAG: Allocate 25 x  1 Levels for Diagnostic #   215 AtPhdtTg
(PID.TID 0000.0001) SETDIAG: Allocate 25 x  1 Levels for Diagnostic #   216 AtPhdtQg
(PID.TID 0000.0001) SETDIAG: Allocate 25 x  1 Levels for Diagnostic #   202 AtPhDifT
(PID.TID 0000.0001) SETDIAG: Allocate 25 x  1 Levels for Diagnostic #   203 AtPhDifM
(PID.TID 0000.0001)   space allocated for all diagnostics:     334 levels
(PID.TID 0000.0001)   set mate pointer for diag #    29  UVEL     , Parms: UUR     MR , mate:    30
(PID.TID 0000.0001)   set mate pointer for diag #    30  VVEL     , Parms: VVR     MR , mate:    29
(PID.TID 0000.0001)   set mate pointer for diag #   200  AtPhdUdt , Parms: UMR     MR , mate:   201
(PID.TID 0000.0001)   set mate pointer for diag #   201  AtPhdVdt , Parms: VMR     MR , mate:   200
(PID.TID 0000.0001) DIAGNOSTICS_SET_POINTERS: Set levels for Outp.Stream: surfDiag
(PID.TID 0000.0001)  Levels:       1.
(PID.TID 0000.0001) DIAGNOSTICS_SET_POINTERS: Set levels for Outp.Stream: dynDiag
(PID.TID 0000.0001)  Levels:       1.   2.   3.   4.   5.   6.   7.   8.   9.  10.  11.  12.  13.  14.  15.  16.  17.  18.  19.  20.
(PID.TID 0000.0001)  Levels:      21.  22.  23.  24.  25.
(PID.TID 0000.0001) DIAGNOSTICS_SET_POINTERS: done
(PID.TID 0000.0001) ------------------------------------------------------------
(PID.TID 0000.0001) DIAGSTATS_SET_REGIONS: define   0 regions:
(PID.TID 0000.0001) ------------------------------------------------------------
(PID.TID 0000.0001) SETDIAG: Allocate  1 Levels for Stats-Diag #    23 ETAN
(PID.TID 0000.0001) SETDIAG: Allocate 25 Levels for Stats-Diag #    26 THETA
(PID.TID 0000.0001) SETDIAG: Allocate 25 Levels for Stats-Diag #    27 SALT
(PID.TID 0000.0001) SETDIAG: Allocate 25 Levels for Stats-Diag #    29 UVEL
(PID.TID 0000.0001) SETDIAG: Allocate 25 Levels for Stats-Diag #    30 VVEL
(PID.TID 0000.0001) SETDIAG: Allocate 25 Levels for Stats-Diag #    31 WVEL
(PID.TID 0000.0001) SETDIAG: Allocate 25 Levels for Stats-Diag #   198 AtPhdTdt
(PID.TID 0000.0001) SETDIAG: Allocate 25 Levels for Stats-Diag #   199 AtPhdQdt
(PID.TID 0000.0001) SETDIAG: Allocate 25 Levels for Stats-Diag #   200 AtPhdUdt
(PID.TID 0000.0001) SETDIAG: Allocate 25 Levels for Stats-Diag #   201 AtPhdVdt
(PID.TID 0000.0001) SETDIAG: Allocate 25 Levels for Stats-Diag #   215 AtPhdtTg
(PID.TID 0000.0001) SETDIAG: Allocate 25 Levels for Stats-Diag #   216 AtPhdtQg
(PID.TID 0000.0001) SETDIAG: Allocate 25 Levels for Stats-Diag #   202 AtPhDifT
(PID.TID 0000.0001) SETDIAG: Allocate 25 Levels for Stats-Diag #   203 AtPhDifM
(PID.TID 0000.0001) SETDIAG: Allocate  1 Levels for Stats-Diag #   211 AtPhSens
(PID.TID 0000.0001) SETDIAG: Allocate  1 Levels for Stats-Diag #   212 AtPhEvap
(PID.TID 0000.0001) SETDIAG: Allocate  1 Levels for Stats-Diag #   213 AtPhTauX
(PID.TID 0000.0001) SETDIAG: Allocate  1 Levels for Stats-Diag #   214 AtPhTauY
(PID.TID 0000.0001) SETDIAG: Allocate  1 Levels for Stats-Diag #   204 AtPhCnvP
(PID.TID 0000.0001) SETDIAG: Allocate  1 Levels for Stats-Diag #   205 AtPhLscP
(PID.TID 0000.0001)   space allocated for all stats-diags:     332 levels
(PID.TID 0000.0001) DIAGSTATS_SET_POINTERS: done
(PID.TID 0000.0001) ------------------------------------------------------------
(PID.TID 0000.0001) DIAGSTATS_INI_IO: open file: dynStDiag.0000000000.txt , unit=     9
(PID.TID 0000.0001) DIAGSTATS_INI_IO: open file: flxStDiag.0000000000.txt , unit=    10
(PID.TID 0000.0001) %MON fCori_max                    =   1.4579854531444E-04
(PID.TID 0000.0001) %MON fCori_min                    =  -1.4579854531444E-04
(PID.TID 0000.0001) %MON fCori_mean                   =  -7.7927031147396E-19
(PID.TID 0000.0001) %MON fCori_sd                     =   1.0312619976228E-04
(PID.TID 0000.0001) %MON fCoriG_max                   =   1.4566679669714E-04
(PID.TID 0000.0001) %MON fCoriG_min                   =  -1.4584247033981E-04
(PID.TID 0000.0001) %MON fCoriG_mean                  =  -2.2787885990595E-06
(PID.TID 0000.0001) %MON fCoriG_sd                    =   1.0310101939326E-04
(PID.TID 0000.0001) %MON fCoriCos_max                 =   1.4579854531444E-04
(PID.TID 0000.0001) %MON fCoriCos_min                 =   3.5791533929553E-06
(PID.TID 0000.0001) %MON fCoriCos_mean                =   9.2855522572229E-05
(PID.TID 0000.0001) %MON fCoriCos_sd                  =   4.4864964117307E-05
(PID.TID 0000.0001) INI_CG2D: CG2D normalisation factor =  2.4541228522912263E-07
(PID.TID 0000.0001) INI_CG2D: cg2dTolerance = 4.171226505466294E-12 (Area=5.0990436378E+14)
(PID.TID 0000.0001) 
(PID.TID 0000.0001) // =======================================================
(PID.TID 0000.0001) // Model configuration
(PID.TID 0000.0001) // =======================================================
(PID.TID 0000.0001) //
(PID.TID 0000.0001) // "Physical" paramters ( PARM01 in namelist )
(PID.TID 0000.0001) //
(PID.TID 0000.0001) buoyancyRelation = /* Type of relation to get Buoyancy */
(PID.TID 0000.0001)               'ATMOSPHERIC'
(PID.TID 0000.0001)     ;
(PID.TID 0000.0001) fluidIsAir   =  /* fluid major constituent is Air */
(PID.TID 0000.0001)                   T
(PID.TID 0000.0001)     ;
(PID.TID 0000.0001) fluidIsWater =  /* fluid major constituent is Water */
(PID.TID 0000.0001)                   F
(PID.TID 0000.0001)     ;
(PID.TID 0000.0001) usingPCoords =  /* use p (or p*) vertical coordinate */
(PID.TID 0000.0001)                   T
(PID.TID 0000.0001)     ;
(PID.TID 0000.0001) usingZCoords =  /* use z (or z*) vertical coordinate */
(PID.TID 0000.0001)                   F
(PID.TID 0000.0001)     ;
(PID.TID 0000.0001) tRef =   /* Reference temperature profile ( oC or K ) */
(PID.TID 0000.0001)                 2.952000000000000E+02,      /* K =  1 */
(PID.TID 0000.0001)                 2.955000000000000E+02,      /* K =  2 */
(PID.TID 0000.0001)                 2.959000000000000E+02,      /* K =  3 */
(PID.TID 0000.0001)                 2.963000000000000E+02,      /* K =  4 */
(PID.TID 0000.0001)                 2.967000000000000E+02,      /* K =  5 */
(PID.TID 0000.0001)                 2.971000000000000E+02,      /* K =  6 */
(PID.TID 0000.0001)                 2.976000000000000E+02,      /* K =  7 */
(PID.TID 0000.0001)                 2.981000000000000E+02,      /* K =  8 */
(PID.TID 0000.0001)                 2.987000000000000E+02,      /* K =  9 */
(PID.TID 0000.0001)                 2.993000000000000E+02,      /* K = 10 */
(PID.TID 0000.0001)                 3.000000000000000E+02,      /* K = 11 */
(PID.TID 0000.0001)                 3.007000000000000E+02,      /* K = 12 */
(PID.TID 0000.0001)                 3.019000000000000E+02,      /* K = 13 */
(PID.TID 0000.0001)                 3.041000000000000E+02,      /* K = 14 */
(PID.TID 0000.0001)                 3.080000000000000E+02,      /* K = 15 */
(PID.TID 0000.0001)                 3.120000000000000E+02,      /* K = 16 */
(PID.TID 0000.0001)                 3.160000000000000E+02,      /* K = 17 */
(PID.TID 0000.0001)                 3.200000000000000E+02,      /* K = 18 */
(PID.TID 0000.0001)                 3.240000000000000E+02,      /* K = 19 */
(PID.TID 0000.0001)                 3.290000000000000E+02,      /* K = 20 */
(PID.TID 0000.0001)                 3.380000000000000E+02,      /* K = 21 */
(PID.TID 0000.0001)                 3.390000000000000E+02,      /* K = 22 */
(PID.TID 0000.0001)                 3.623000000000000E+02,      /* K = 23 */
(PID.TID 0000.0001)                 4.192000000000000E+02,      /* K = 24 */
(PID.TID 0000.0001)                 5.738000000000000E+02       /* K = 25 */
(PID.TID 0000.0001)     ;
(PID.TID 0000.0001) sRef =   /* Reference salinity profile ( psu ) */
(PID.TID 0000.0001)    10 @  1.000000000000000E-02,             /* K =  1: 10 */
(PID.TID 0000.0001)    15 @  0.000000000000000E+00              /* K = 11: 25 */
(PID.TID 0000.0001)     ;
(PID.TID 0000.0001) viscAh  =   /* Lateral eddy viscosity ( m^2/s ) */
(PID.TID 0000.0001)                 0.000000000000000E+00
(PID.TID 0000.0001)     ;
(PID.TID 0000.0001) viscAhMax = /* Maximum lateral eddy viscosity ( m^2/s ) */
(PID.TID 0000.0001)                 1.000000000000000E+21
(PID.TID 0000.0001)     ;
(PID.TID 0000.0001) viscAhGrid = /* Grid dependent lateral eddy viscosity ( non-dim. ) */
(PID.TID 0000.0001)                 0.000000000000000E+00
(PID.TID 0000.0001)     ;
(PID.TID 0000.0001) useFullLeith = /* Use Full Form of Leith Viscosity on/off flag*/
(PID.TID 0000.0001)                   F
(PID.TID 0000.0001)     ;
(PID.TID 0000.0001) useStrainTensionVisc= /* Use StrainTension Form of Viscous Operator flag*/
(PID.TID 0000.0001)                   F
(PID.TID 0000.0001)     ;
(PID.TID 0000.0001) useAreaViscLength = /* Use area for visc length instead of geom. mean*/
(PID.TID 0000.0001)                   F
(PID.TID 0000.0001)     ;
(PID.TID 0000.0001) viscC2leith = /* Leith harmonic visc. factor (on grad(vort),non-dim.) */
(PID.TID 0000.0001)                 0.000000000000000E+00
(PID.TID 0000.0001)     ;
(PID.TID 0000.0001) viscC2leithD = /* Leith harmonic viscosity factor (on grad(div),non-dim.)*/
(PID.TID 0000.0001)                 0.000000000000000E+00
(PID.TID 0000.0001)     ;
(PID.TID 0000.0001) viscC2smag = /* Smagorinsky harmonic viscosity factor (non-dim.) */
(PID.TID 0000.0001)                 0.000000000000000E+00
(PID.TID 0000.0001)     ;
(PID.TID 0000.0001) viscA4  =   /* Lateral biharmonic viscosity ( m^4/s ) */
(PID.TID 0000.0001)                 0.000000000000000E+00
(PID.TID 0000.0001)     ;
(PID.TID 0000.0001) viscA4Max = /* Maximum biharmonic viscosity ( m^2/s ) */
(PID.TID 0000.0001)                 1.000000000000000E+21
(PID.TID 0000.0001)     ;
(PID.TID 0000.0001) viscA4Grid = /* Grid dependent biharmonic viscosity ( non-dim. ) */
(PID.TID 0000.0001)                 0.000000000000000E+00
(PID.TID 0000.0001)     ;
(PID.TID 0000.0001) viscC4leith = /* Leith biharm viscosity factor (on grad(vort), non-dim.)*/
(PID.TID 0000.0001)                 0.000000000000000E+00
(PID.TID 0000.0001)     ;
(PID.TID 0000.0001) viscC4leithD = /* Leith biharm viscosity factor (on grad(div), non-dim.) */
(PID.TID 0000.0001)                 0.000000000000000E+00
(PID.TID 0000.0001)     ;
(PID.TID 0000.0001) viscC4Smag = /* Smagorinsky biharm viscosity factor (non-dim) */
(PID.TID 0000.0001)                 0.000000000000000E+00
(PID.TID 0000.0001)     ;
(PID.TID 0000.0001) no_slip_sides =  /* Viscous BCs: No-slip sides */
(PID.TID 0000.0001)                   F
(PID.TID 0000.0001)     ;
(PID.TID 0000.0001) sideDragFactor = /* side-drag scaling factor (non-dim) */
(PID.TID 0000.0001)                 2.000000000000000E+00
(PID.TID 0000.0001)     ;
(PID.TID 0000.0001) viscArNr = /* vertical profile of vertical viscosity (Pa^2/s )*/
(PID.TID 0000.0001)    25 @  0.000000000000000E+00              /* K =  1: 25 */
(PID.TID 0000.0001)     ;
(PID.TID 0000.0001) no_slip_bottom =  /* Viscous BCs: No-slip bottom */
(PID.TID 0000.0001)                   F
(PID.TID 0000.0001)     ;
(PID.TID 0000.0001) bottomDragLinear = /* linear bottom-drag coefficient ( m/s ) */
(PID.TID 0000.0001)                 0.000000000000000E+00
(PID.TID 0000.0001)     ;
(PID.TID 0000.0001) bottomDragQuadratic = /* quadratic bottom-drag coefficient (-) */
(PID.TID 0000.0001)                 0.000000000000000E+00
(PID.TID 0000.0001)     ;
(PID.TID 0000.0001) diffKhT =   /* Laplacian diffusion of heat laterally ( m^2/s ) */
(PID.TID 0000.0001)                 0.000000000000000E+00
(PID.TID 0000.0001)     ;
(PID.TID 0000.0001) diffK4T =   /* Biharmonic diffusion of heat laterally ( m^4/s ) */
(PID.TID 0000.0001)                 0.000000000000000E+00
(PID.TID 0000.0001)     ;
(PID.TID 0000.0001) diffKhS =   /* Laplacian diffusion of salt laterally ( m^2/s ) */
(PID.TID 0000.0001)                 0.000000000000000E+00
(PID.TID 0000.0001)     ;
(PID.TID 0000.0001) diffK4S =   /* Biharmonic diffusion of salt laterally ( m^4/s ) */
(PID.TID 0000.0001)                 0.000000000000000E+00
(PID.TID 0000.0001)     ;
(PID.TID 0000.0001) diffKrNrT = /* vertical profile of vertical diffusion of Temp (Pa^2/s )*/
(PID.TID 0000.0001)    25 @  0.000000000000000E+00              /* K =  1: 25 */
(PID.TID 0000.0001)     ;
(PID.TID 0000.0001) diffKrNrS = /* vertical profile of vertical diffusion of Salt (Pa^2/s )*/
(PID.TID 0000.0001)    25 @  0.000000000000000E+00              /* K =  1: 25 */
(PID.TID 0000.0001)     ;
(PID.TID 0000.0001) diffKrBL79surf = /* Surface diffusion for Bryan and Lewis 79 ( m^2/s ) */
(PID.TID 0000.0001)                 0.000000000000000E+00
(PID.TID 0000.0001)     ;
(PID.TID 0000.0001) diffKrBL79deep = /* Deep diffusion for Bryan and Lewis 1979 ( m^2/s ) */
(PID.TID 0000.0001)                 0.000000000000000E+00
(PID.TID 0000.0001)     ;
(PID.TID 0000.0001) diffKrBL79scl = /* Depth scale for Bryan and Lewis 1979 ( m ) */
(PID.TID 0000.0001)                 2.000000000000000E+02
(PID.TID 0000.0001)     ;
(PID.TID 0000.0001) diffKrBL79Ho = /* Turning depth for Bryan and Lewis 1979 ( m ) */
(PID.TID 0000.0001)                -2.000000000000000E+03
(PID.TID 0000.0001)     ;
(PID.TID 0000.0001) ivdc_kappa = /* Implicit Vertical Diffusivity for Convection (Pa^2/s) */
(PID.TID 0000.0001)                 0.000000000000000E+00
(PID.TID 0000.0001)     ;
(PID.TID 0000.0001) hMixCriteria=  /* Criteria for mixed-layer diagnostic */
(PID.TID 0000.0001)                -8.000000000000000E-01
(PID.TID 0000.0001)     ;
(PID.TID 0000.0001) dRhoSmall =  /* Parameter for mixed-layer diagnostic */
(PID.TID 0000.0001)                 1.000000000000000E-06
(PID.TID 0000.0001)     ;
(PID.TID 0000.0001) hMixSmooth=  /* Smoothing parameter for mixed-layer diagnostic */
(PID.TID 0000.0001)                 0.000000000000000E+00
(PID.TID 0000.0001)     ;
(PID.TID 0000.0001) eosType =  /* Type of Equation of State */
(PID.TID 0000.0001)               'IDEALG'
(PID.TID 0000.0001)     ;
(PID.TID 0000.0001) celsius2K = /* 0 degree Celsius converted to Kelvin ( K ) */
(PID.TID 0000.0001)                 2.731500000000000E+02
(PID.TID 0000.0001)     ;
(PID.TID 0000.0001) atm_Rd =  /* gas constant for dry air ( J/kg/K ) */
(PID.TID 0000.0001)                 2.870400000000000E+02
(PID.TID 0000.0001)     ;
(PID.TID 0000.0001) atm_Cp =  /* specific heat (Cp) of dry air ( J/kg/K ) */
(PID.TID 0000.0001)                 1.004640000000000E+03
(PID.TID 0000.0001)     ;
(PID.TID 0000.0001) atm_kappa =  /* kappa (=Rd/Cp ) of dry air */
(PID.TID 0000.0001)                 2.857142857142857E-01
(PID.TID 0000.0001)     ;
(PID.TID 0000.0001) atm_Rq = /* water vap. specific vol. anomaly relative to dry air */
(PID.TID 0000.0001)                 0.000000000000000E+00
(PID.TID 0000.0001)     ;
(PID.TID 0000.0001) atm_Po =  /* standard reference pressure ( Pa ) */
(PID.TID 0000.0001)                 1.000000000000000E+05
(PID.TID 0000.0001)     ;
(PID.TID 0000.0001) integr_GeoPot =  /* select how the geopotential is integrated */
(PID.TID 0000.0001)                       2
(PID.TID 0000.0001)     ;
(PID.TID 0000.0001) selectFindRoSurf=  /* select how Surf.Ref. pressure is defined */
(PID.TID 0000.0001)                       1
(PID.TID 0000.0001)     ;
(PID.TID 0000.0001) rhoConst  = /* Reference density (Boussinesq)  ( kg/m^3 ) */
(PID.TID 0000.0001)                 1.000000000000000E+00
(PID.TID 0000.0001)     ;
(PID.TID 0000.0001) rhoFacC = /* normalized Reference density @ cell-Center (-) */
(PID.TID 0000.0001)    25 @  1.000000000000000E+00              /* K =  1: 25 */
(PID.TID 0000.0001)     ;
(PID.TID 0000.0001) rhoFacF = /* normalized Reference density @ W-Interface (-) */
(PID.TID 0000.0001)    26 @  1.000000000000000E+00              /* K =  1: 26 */
(PID.TID 0000.0001)     ;
(PID.TID 0000.0001) rhoConstFresh = /* Fresh-water reference density ( kg/m^3 ) */
(PID.TID 0000.0001)                 1.000000000000000E+00
(PID.TID 0000.0001)     ;
(PID.TID 0000.0001) gravity =   /* Gravitational acceleration ( m/s^2 ) */
(PID.TID 0000.0001)                 9.800000000000001E+00
(PID.TID 0000.0001)     ;
(PID.TID 0000.0001) gBaro =   /* Barotropic gravity ( m/s^2 ) */
(PID.TID 0000.0001)                 9.800000000000001E+00
(PID.TID 0000.0001)     ;
(PID.TID 0000.0001) rotationPeriod =   /* Rotation Period ( s ) */
(PID.TID 0000.0001)                 8.616400000000000E+04
(PID.TID 0000.0001)     ;
(PID.TID 0000.0001) omega =   /* Angular velocity ( rad/s ) */
(PID.TID 0000.0001)                 7.292123516990375E-05
(PID.TID 0000.0001)     ;
(PID.TID 0000.0001) f0 =   /* Reference coriolis parameter ( 1/s ) */
(PID.TID 0000.0001)                 1.000000000000000E-04
(PID.TID 0000.0001)     ;
(PID.TID 0000.0001) beta =   /* Beta ( 1/(m.s) ) */
(PID.TID 0000.0001)                 9.999999999999999E-12
(PID.TID 0000.0001)     ;
(PID.TID 0000.0001) fPrime =   /* Second coriolis parameter ( 1/s ) */
(PID.TID 0000.0001)                 0.000000000000000E+00
(PID.TID 0000.0001)     ;
(PID.TID 0000.0001) rigidLid =   /* Rigid lid on/off flag */
(PID.TID 0000.0001)                   F
(PID.TID 0000.0001)     ;
(PID.TID 0000.0001) implicitFreeSurface =   /* Implicit free surface on/off flag */
(PID.TID 0000.0001)                   T
(PID.TID 0000.0001)     ;
(PID.TID 0000.0001) freeSurfFac =   /* Implicit free surface factor */
(PID.TID 0000.0001)                 1.000000000000000E+00
(PID.TID 0000.0001)     ;
(PID.TID 0000.0001) implicSurfPress =  /* Surface Pressure implicit factor (0-1)*/
(PID.TID 0000.0001)                 1.000000000000000E+00
(PID.TID 0000.0001)     ;
(PID.TID 0000.0001) implicDiv2Dflow =  /* Barot. Flow Div. implicit factor (0-1)*/
(PID.TID 0000.0001)                 1.000000000000000E+00
(PID.TID 0000.0001)     ;
(PID.TID 0000.0001) uniformLin_PhiSurf = /* use uniform Bo_surf on/off flag*/
(PID.TID 0000.0001)                   F
(PID.TID 0000.0001)     ;
(PID.TID 0000.0001) uniformFreeSurfLev = /* free-surface level-index is uniform */
(PID.TID 0000.0001)                   F
(PID.TID 0000.0001)     ;
(PID.TID 0000.0001) hFacMin =   /* minimum partial cell factor (hFac) */
(PID.TID 0000.0001)                 1.000000000000000E+00
(PID.TID 0000.0001)     ;
(PID.TID 0000.0001) hFacMinDr = /* minimum partial cell thickness (Pa) */
(PID.TID 0000.0001)                 1.000000000000000E+00
(PID.TID 0000.0001)     ;
(PID.TID 0000.0001) exactConserv =  /* Exact Volume Conservation on/off flag*/
(PID.TID 0000.0001)                   T
(PID.TID 0000.0001)     ;
(PID.TID 0000.0001) linFSConserveTr = /* Tracer correction for Lin Free Surface on/off flag*/
(PID.TID 0000.0001)                   F
(PID.TID 0000.0001)     ;
(PID.TID 0000.0001) nonlinFreeSurf = /* Non-linear Free Surf. options (-1,0,1,2,3)*/
(PID.TID 0000.0001)                       4
(PID.TID 0000.0001)      -1,0= Off ; 1,2,3= On, 2=+rescale gU,gV, 3=+update cg2d solv.
(PID.TID 0000.0001)     ;
(PID.TID 0000.0001) hFacInf =   /* lower threshold for hFac (nonlinFreeSurf only)*/
(PID.TID 0000.0001)                 2.000000000000000E-01
(PID.TID 0000.0001)     ;
(PID.TID 0000.0001) hFacSup =   /* upper threshold for hFac (nonlinFreeSurf only)*/
(PID.TID 0000.0001)                 2.000000000000000E+00
(PID.TID 0000.0001)     ;
(PID.TID 0000.0001) select_rStar = /* r* Vertical coord. options (=0 r coord.; >0 uses r*)*/
(PID.TID 0000.0001)                       2
(PID.TID 0000.0001)     ;
(PID.TID 0000.0001) useRealFreshWaterFlux = /* Real Fresh Water Flux on/off flag*/
(PID.TID 0000.0001)                   F
(PID.TID 0000.0001)     ;
(PID.TID 0000.0001) temp_EvPrRn = /* Temp. of Evap/Prec/R (UNSET=use local T)(oC)*/
(PID.TID 0000.0001)                 1.234567000000000E+05
(PID.TID 0000.0001)     ;
(PID.TID 0000.0001) salt_EvPrRn = /* Salin. of Evap/Prec/R (UNSET=use local S)(psu)*/
(PID.TID 0000.0001)                 0.000000000000000E+00
(PID.TID 0000.0001)     ;
(PID.TID 0000.0001) selectAddFluid = /* option for mass source/sink of fluid (=0: off) */
(PID.TID 0000.0001)                       0
(PID.TID 0000.0001)     ;
(PID.TID 0000.0001) temp_addMass = /* Temp. of addMass array (UNSET=use local T)(oC)*/
(PID.TID 0000.0001)                 1.234567000000000E+05
(PID.TID 0000.0001)     ;
(PID.TID 0000.0001) salt_addMass = /* Salin. of addMass array (UNSET=use local S)(psu)*/
(PID.TID 0000.0001)                 0.000000000000000E+00
(PID.TID 0000.0001)     ;
(PID.TID 0000.0001) convertFW2Salt = /* convert F.W. Flux to Salt Flux (-1=use local S)(psu)*/
(PID.TID 0000.0001)                 3.500000000000000E+01
(PID.TID 0000.0001)     ;
(PID.TID 0000.0001) use3Dsolver = /* use 3-D pressure solver on/off flag */
(PID.TID 0000.0001)                   F
(PID.TID 0000.0001)     ;
(PID.TID 0000.0001) nonHydrostatic =  /* Non-Hydrostatic on/off flag */
(PID.TID 0000.0001)                   F
(PID.TID 0000.0001)     ;
(PID.TID 0000.0001) nh_Am2 = /* Non-Hydrostatic terms scaling factor */
(PID.TID 0000.0001)                 1.000000000000000E+00
(PID.TID 0000.0001)     ;
(PID.TID 0000.0001) implicitNHPress = /* Non-Hyd Pressure implicit factor (0-1)*/
(PID.TID 0000.0001)                 1.000000000000000E+00
(PID.TID 0000.0001)     ;
(PID.TID 0000.0001) selectNHfreeSurf = /* Non-Hyd (free-)Surface option */
(PID.TID 0000.0001)                       0
(PID.TID 0000.0001)     ;
(PID.TID 0000.0001) quasiHydrostatic = /* Quasi-Hydrostatic on/off flag */
(PID.TID 0000.0001)                   F
(PID.TID 0000.0001)     ;
(PID.TID 0000.0001) calc_wVelocity = /* vertical velocity calculation on/off flag */
(PID.TID 0000.0001)                   T
(PID.TID 0000.0001)     ;
(PID.TID 0000.0001) momStepping =  /* Momentum equation on/off flag */
(PID.TID 0000.0001)                   T
(PID.TID 0000.0001)     ;
(PID.TID 0000.0001) vectorInvariantMomentum= /* Vector-Invariant Momentum on/off */
(PID.TID 0000.0001)                   F
(PID.TID 0000.0001)     ;
(PID.TID 0000.0001) momAdvection =  /* Momentum advection on/off flag */
(PID.TID 0000.0001)                   T
(PID.TID 0000.0001)     ;
(PID.TID 0000.0001) momViscosity =  /* Momentum viscosity on/off flag */
(PID.TID 0000.0001)                   T
(PID.TID 0000.0001)     ;
(PID.TID 0000.0001) momImplVertAdv= /* Momentum implicit vert. advection on/off*/
(PID.TID 0000.0001)                   F
(PID.TID 0000.0001)     ;
(PID.TID 0000.0001) implicitViscosity = /* Implicit viscosity on/off flag */
(PID.TID 0000.0001)                   F
(PID.TID 0000.0001)     ;
(PID.TID 0000.0001) metricTerms =  /* metric-Terms on/off flag */
(PID.TID 0000.0001)                   T
(PID.TID 0000.0001)     ;
(PID.TID 0000.0001) useNHMTerms = /* Non-Hydrostatic Metric-Terms on/off */
(PID.TID 0000.0001)                   F
(PID.TID 0000.0001)     ;
(PID.TID 0000.0001) selectCoriMap = /* Coriolis Map options (0,1,2,3)*/
(PID.TID 0000.0001)                       2
(PID.TID 0000.0001)     0= f-Plane ; 1= Beta-Plane ; 2= Spherical ; 3= read from file
(PID.TID 0000.0001)     ;
(PID.TID 0000.0001) use3dCoriolis = /* 3-D Coriolis on/off flag */
(PID.TID 0000.0001)                   F
(PID.TID 0000.0001)     ;
(PID.TID 0000.0001) useCoriolis =  /* Coriolis on/off flag */
(PID.TID 0000.0001)                   T
(PID.TID 0000.0001)     ;
(PID.TID 0000.0001) useCDscheme =  /* CD scheme on/off flag */
(PID.TID 0000.0001)                   F
(PID.TID 0000.0001)     ;
(PID.TID 0000.0001) useEnergyConservingCoriolis= /* Flx-Form Coriolis scheme flag */
(PID.TID 0000.0001)                   F
(PID.TID 0000.0001)     ;
(PID.TID 0000.0001) useJamartWetPoints= /* Coriolis WetPoints method flag */
(PID.TID 0000.0001)                   F
(PID.TID 0000.0001)     ;
(PID.TID 0000.0001) useJamartMomAdv= /* V.I Non-linear terms Jamart flag */
(PID.TID 0000.0001)                   F
(PID.TID 0000.0001)     ;
(PID.TID 0000.0001) useAbsVorticity= /* V.I Works with f+zeta in Coriolis */
(PID.TID 0000.0001)                   F
(PID.TID 0000.0001)     ;
(PID.TID 0000.0001) selectVortScheme= /* V.I Scheme selector for Vorticity-Term */
(PID.TID 0000.0001)               123456789
(PID.TID 0000.0001)    = 0 : enstrophy (Shallow-Water Eq.) conserving scheme by Sadourny, JAS 75
(PID.TID 0000.0001)    = 1 : same as 0 with modified hFac
(PID.TID 0000.0001)    = 2 : energy conserving scheme (used by Sadourny in JAS 75 paper)
(PID.TID 0000.0001)    = 3 : energy (general) and enstrophy (2D, nonDiv.) conserving scheme
(PID.TID 0000.0001)          from Sadourny (Burridge & Haseler, ECMWF Rep.4, 1977)
(PID.TID 0000.0001)     ;
(PID.TID 0000.0001) upwindVorticity= /* V.I Upwind bias vorticity flag */
(PID.TID 0000.0001)                   F
(PID.TID 0000.0001)     ;
(PID.TID 0000.0001) highOrderVorticity= /* V.I High order vort. advect. flag */
(PID.TID 0000.0001)                   F
(PID.TID 0000.0001)     ;
(PID.TID 0000.0001) upwindShear= /* V.I Upwind vertical Shear advection flag */
(PID.TID 0000.0001)                   F
(PID.TID 0000.0001)     ;
(PID.TID 0000.0001) selectKEscheme= /* V.I Kinetic Energy scheme selector */
(PID.TID 0000.0001)                       0
(PID.TID 0000.0001)     ;
(PID.TID 0000.0001) momForcing =  /* Momentum forcing on/off flag */
(PID.TID 0000.0001)                   T
(PID.TID 0000.0001)     ;
(PID.TID 0000.0001) momPressureForcing =  /* Momentum pressure term on/off flag */
(PID.TID 0000.0001)                   T
(PID.TID 0000.0001)     ;
(PID.TID 0000.0001) implicitIntGravWave= /* Implicit Internal Gravity Wave flag */
(PID.TID 0000.0001)                   F
(PID.TID 0000.0001)     ;
(PID.TID 0000.0001) staggerTimeStep =    /* Stagger time stepping on/off flag */
(PID.TID 0000.0001)                   T
(PID.TID 0000.0001)     ;
(PID.TID 0000.0001) doResetHFactors = /* reset thickness factors @ each time-step */
(PID.TID 0000.0001)                   F
(PID.TID 0000.0001)     ;
(PID.TID 0000.0001) multiDimAdvection =  /* enable/disable Multi-Dim Advection */
(PID.TID 0000.0001)                   T
(PID.TID 0000.0001)     ;
(PID.TID 0000.0001) useMultiDimAdvec =   /* Multi-Dim Advection is/is-not used */
(PID.TID 0000.0001)                   T
(PID.TID 0000.0001)     ;
(PID.TID 0000.0001) implicitDiffusion = /* Implicit Diffusion on/off flag */
(PID.TID 0000.0001)                   F
(PID.TID 0000.0001)     ;
(PID.TID 0000.0001) tempStepping =  /* Temperature equation on/off flag */
(PID.TID 0000.0001)                   T
(PID.TID 0000.0001)     ;
(PID.TID 0000.0001) tempAdvection = /* Temperature advection on/off flag */
(PID.TID 0000.0001)                   T
(PID.TID 0000.0001)     ;
(PID.TID 0000.0001) tempImplVertAdv = /* Temp. implicit vert. advection on/off */
(PID.TID 0000.0001)                   F
(PID.TID 0000.0001)     ;
(PID.TID 0000.0001) tempForcing  =  /* Temperature forcing on/off flag */
(PID.TID 0000.0001)                   T
(PID.TID 0000.0001)     ;
(PID.TID 0000.0001) doThetaClimRelax = /* apply SST relaxation on/off flag */
(PID.TID 0000.0001)                   F
(PID.TID 0000.0001)     ;
(PID.TID 0000.0001) tempIsActiveTr = /* Temp. is a dynamically Active Tracer */
(PID.TID 0000.0001)                   T
(PID.TID 0000.0001)     ;
(PID.TID 0000.0001) saltStepping =  /* Salinity equation on/off flag */
(PID.TID 0000.0001)                   T
(PID.TID 0000.0001)     ;
(PID.TID 0000.0001) saltAdvection = /* Salinity advection on/off flag */
(PID.TID 0000.0001)                   T
(PID.TID 0000.0001)     ;
(PID.TID 0000.0001) saltImplVertAdv = /* Sali. implicit vert. advection on/off */
(PID.TID 0000.0001)                   F
(PID.TID 0000.0001)     ;
(PID.TID 0000.0001) saltForcing  =  /* Salinity forcing on/off flag */
(PID.TID 0000.0001)                   T
(PID.TID 0000.0001)     ;
(PID.TID 0000.0001) doSaltClimRelax = /* apply SSS relaxation on/off flag */
(PID.TID 0000.0001)                   F
(PID.TID 0000.0001)     ;
(PID.TID 0000.0001) saltIsActiveTr = /* Salt  is a dynamically Active Tracer */
(PID.TID 0000.0001)                   F
(PID.TID 0000.0001)     ;
(PID.TID 0000.0001)  readBinaryPrec = /* Precision used for reading binary files */
(PID.TID 0000.0001)                      64
(PID.TID 0000.0001)     ;
(PID.TID 0000.0001) writeBinaryPrec = /* Precision used for writing binary files */
(PID.TID 0000.0001)                      64
(PID.TID 0000.0001)     ;
(PID.TID 0000.0001)  globalFiles = /* write "global" (=not per tile) files */
(PID.TID 0000.0001)                   F
(PID.TID 0000.0001)     ;
(PID.TID 0000.0001)  useSingleCpuIO = /* only master MPI process does I/O */
(PID.TID 0000.0001)                   F
(PID.TID 0000.0001)     ;
(PID.TID 0000.0001) /* debLev[*]  : level of debug & auxiliary message printing */
(PID.TID 0000.0001) debLevZero =  0 ; /* level of disabled aux. msg printing */
(PID.TID 0000.0001)    debLevA =  1 ; /* level of minimum  aux. msg printing */
(PID.TID 0000.0001)    debLevB =  2 ; /* level of low aux. print (report read-file opening)*/
(PID.TID 0000.0001)    debLevC =  3 ; /* level of moderate debug prt (most pkgs debug msg) */
(PID.TID 0000.0001)    debLevD =  4 ; /* level of enhanced debug prt (add DEBUG_STATS prt) */
(PID.TID 0000.0001)    debLevE =  5 ; /* level of extensive debug printing */
(PID.TID 0000.0001) debugLevel =  /* select debug printing level */
(PID.TID 0000.0001)                       2
(PID.TID 0000.0001)     ;
(PID.TID 0000.0001) //
(PID.TID 0000.0001) // Elliptic solver(s) paramters ( PARM02 in namelist )
(PID.TID 0000.0001) //
(PID.TID 0000.0001) cg2dMaxIters =   /* Upper limit on 2d con. grad iterations  */
(PID.TID 0000.0001)                     200
(PID.TID 0000.0001)     ;
(PID.TID 0000.0001) cg2dChkResFreq =   /* 2d con. grad convergence test frequency */
(PID.TID 0000.0001)                       1
(PID.TID 0000.0001)     ;
(PID.TID 0000.0001) cg2dTargetResidual =   /* 2d con. grad target residual  */
(PID.TID 0000.0001)                 1.000000000000000E-07
(PID.TID 0000.0001)     ;
(PID.TID 0000.0001) cg2dTargetResWunit =   /* CG2d target residual [W units] */
(PID.TID 0000.0001)                 1.000000000000000E-17
(PID.TID 0000.0001)     ;
(PID.TID 0000.0001) cg2dPreCondFreq =   /* Freq. for updating cg2d preconditioner */
(PID.TID 0000.0001)                       1
(PID.TID 0000.0001)     ;
(PID.TID 0000.0001) useSRCGSolver =  /* use single reduction CG solver(s) */
(PID.TID 0000.0001)                   F
(PID.TID 0000.0001)     ;
(PID.TID 0000.0001) printResidualFreq = /* Freq. for printing CG residual */
(PID.TID 0000.0001)                       0
(PID.TID 0000.0001)     ;
(PID.TID 0000.0001) //
(PID.TID 0000.0001) // Time stepping paramters ( PARM03 in namelist )
(PID.TID 0000.0001) //
(PID.TID 0000.0001) deltaTMom =   /* Momentum equation timestep ( s ) */
(PID.TID 0000.0001)                 3.000000000000000E+02
(PID.TID 0000.0001)     ;
(PID.TID 0000.0001) deltaTFreeSurf = /* FreeSurface equation timestep ( s ) */
(PID.TID 0000.0001)                 3.000000000000000E+02
(PID.TID 0000.0001)     ;
(PID.TID 0000.0001) dTtracerLev =  /* Tracer equation timestep ( s ) */
(PID.TID 0000.0001)    25 @  3.000000000000000E+02              /* K =  1: 25 */
(PID.TID 0000.0001)     ;
(PID.TID 0000.0001) deltaTClock  =   /* Model clock timestep ( s ) */
(PID.TID 0000.0001)                 3.000000000000000E+02
(PID.TID 0000.0001)     ;
(PID.TID 0000.0001) cAdjFreq =   /* Convective adjustment interval ( s ) */
(PID.TID 0000.0001)                 0.000000000000000E+00
(PID.TID 0000.0001)     ;
(PID.TID 0000.0001) momForcingOutAB = /* =1: take Momentum Forcing out of Adams-Bash. stepping */
(PID.TID 0000.0001)                       0
(PID.TID 0000.0001)     ;
(PID.TID 0000.0001) tracForcingOutAB = /* =1: take T,S,pTr Forcing out of Adams-Bash. stepping */
(PID.TID 0000.0001)                       0
(PID.TID 0000.0001)     ;
(PID.TID 0000.0001) momDissip_In_AB = /* put Dissipation Tendency in Adams-Bash. stepping */
(PID.TID 0000.0001)                   T
(PID.TID 0000.0001)     ;
(PID.TID 0000.0001) doAB_onGtGs = /* apply AB on Tendencies (rather than on T,S)*/
(PID.TID 0000.0001)                   T
(PID.TID 0000.0001)     ;
(PID.TID 0000.0001) abEps =   /* Adams-Bashforth-2 stabilizing weight */
(PID.TID 0000.0001)                 1.000000000000000E-01
(PID.TID 0000.0001)     ;
(PID.TID 0000.0001) pickupStrictlyMatch= /* stop if pickup do not strictly match */
(PID.TID 0000.0001)                   T
(PID.TID 0000.0001)     ;
(PID.TID 0000.0001) nIter0   =   /* Run starting timestep number */
(PID.TID 0000.0001)                       0
(PID.TID 0000.0001)     ;
(PID.TID 0000.0001) nTimeSteps = /* Number of timesteps */
(PID.TID 0000.0001)                      10
(PID.TID 0000.0001)     ;
(PID.TID 0000.0001) nEndIter =   /* Run ending timestep number */
(PID.TID 0000.0001)                      10
(PID.TID 0000.0001)     ;
(PID.TID 0000.0001) baseTime =   /* Model base time ( s ) */
(PID.TID 0000.0001)                 0.000000000000000E+00
(PID.TID 0000.0001)     ;
(PID.TID 0000.0001) startTime =  /* Run start time ( s ) */
(PID.TID 0000.0001)                 0.000000000000000E+00
(PID.TID 0000.0001)     ;
(PID.TID 0000.0001) endTime  =   /* Integration ending time ( s ) */
(PID.TID 0000.0001)                 3.000000000000000E+03
(PID.TID 0000.0001)     ;
(PID.TID 0000.0001) pChkPtFreq = /* Permanent restart/pickup file interval ( s ) */
(PID.TID 0000.0001)                 0.000000000000000E+00
(PID.TID 0000.0001)     ;
(PID.TID 0000.0001) chkPtFreq  = /* Rolling restart/pickup file interval ( s ) */
(PID.TID 0000.0001)                 0.000000000000000E+00
(PID.TID 0000.0001)     ;
(PID.TID 0000.0001) pickup_write_mdsio =   /* Model IO flag. */
(PID.TID 0000.0001)                   T
(PID.TID 0000.0001)     ;
(PID.TID 0000.0001) pickup_read_mdsio =   /* Model IO flag. */
(PID.TID 0000.0001)                   T
(PID.TID 0000.0001)     ;
(PID.TID 0000.0001) pickup_write_immed =   /* Model IO flag. */
(PID.TID 0000.0001)                   F
(PID.TID 0000.0001)     ;
(PID.TID 0000.0001) writePickupAtEnd =   /* Model IO flag. */
(PID.TID 0000.0001)                   T
(PID.TID 0000.0001)     ;
(PID.TID 0000.0001) dumpFreq =   /* Model state write out interval ( s ). */
(PID.TID 0000.0001)                 2.592000000000000E+06
(PID.TID 0000.0001)     ;
(PID.TID 0000.0001) dumpInitAndLast= /* write out Initial & Last iter. model state */
(PID.TID 0000.0001)                   T
(PID.TID 0000.0001)     ;
(PID.TID 0000.0001) snapshot_mdsio =   /* Model IO flag. */
(PID.TID 0000.0001)                   T
(PID.TID 0000.0001)     ;
(PID.TID 0000.0001) monitorFreq =   /* Monitor output interval ( s ). */
(PID.TID 0000.0001)                 1.000000000000000E+00
(PID.TID 0000.0001)     ;
(PID.TID 0000.0001) monitorSelect = /* select group of variables to monitor */
(PID.TID 0000.0001)                       2
(PID.TID 0000.0001)     ;
(PID.TID 0000.0001) monitor_stdio =   /* Model IO flag. */
(PID.TID 0000.0001)                   T
(PID.TID 0000.0001)     ;
(PID.TID 0000.0001) externForcingPeriod =   /* forcing period (s) */
(PID.TID 0000.0001)                 0.000000000000000E+00
(PID.TID 0000.0001)     ;
(PID.TID 0000.0001) externForcingCycle =   /* period of the cyle (s). */
(PID.TID 0000.0001)                 0.000000000000000E+00
(PID.TID 0000.0001)     ;
(PID.TID 0000.0001) tauThetaClimRelax =   /* relaxation time scale (s) */
(PID.TID 0000.0001)                 0.000000000000000E+00
(PID.TID 0000.0001)     ;
(PID.TID 0000.0001) tauSaltClimRelax =   /* relaxation time scale (s) */
(PID.TID 0000.0001)                 0.000000000000000E+00
(PID.TID 0000.0001)     ;
(PID.TID 0000.0001) latBandClimRelax =   /* max. Lat. where relaxation */
(PID.TID 0000.0001)                 1.800000000000000E+02
(PID.TID 0000.0001)     ;
(PID.TID 0000.0001) //
(PID.TID 0000.0001) // Gridding paramters ( PARM04 in namelist )
(PID.TID 0000.0001) //
(PID.TID 0000.0001) usingCartesianGrid = /* Cartesian coordinates flag ( True/False ) */
(PID.TID 0000.0001)                   F
(PID.TID 0000.0001)     ;
(PID.TID 0000.0001) usingCylindricalGrid = /* Cylindrical coordinates flag ( True/False ) */
(PID.TID 0000.0001)                   F
(PID.TID 0000.0001)     ;
(PID.TID 0000.0001) usingSphericalPolarGrid = /* Spherical coordinates flag ( True/False ) */
(PID.TID 0000.0001)                   T
(PID.TID 0000.0001)     ;
(PID.TID 0000.0001) usingCurvilinearGrid = /* Curvilinear coordinates flag ( True/False ) */
(PID.TID 0000.0001)                   F
(PID.TID 0000.0001)     ;
(PID.TID 0000.0001) selectSigmaCoord = /* Hybrid-Sigma Vert. Coordinate option */
(PID.TID 0000.0001)                       0
(PID.TID 0000.0001)     ;
(PID.TID 0000.0001) Ro_SeaLevel = /* r(1) ( units of r == Pa ) */
(PID.TID 0000.0001)                 1.000000000000000E+05
(PID.TID 0000.0001)     ;
(PID.TID 0000.0001) rSigmaBnd = /* r/sigma transition ( units of r == Pa ) */
(PID.TID 0000.0001)                 1.234567000000000E+05
(PID.TID 0000.0001)     ;
(PID.TID 0000.0001) rkSign =   /* index orientation relative to vertical coordinate */
(PID.TID 0000.0001)                -1.000000000000000E+00
(PID.TID 0000.0001)     ;
(PID.TID 0000.0001) gravitySign = /* gravity orientation relative to vertical coordinate */
(PID.TID 0000.0001)                 1.000000000000000E+00
(PID.TID 0000.0001)     ;
(PID.TID 0000.0001) mass2rUnit = /* convert mass per unit area [kg/m2] to r-units [Pa] */
(PID.TID 0000.0001)                 9.800000000000001E+00
(PID.TID 0000.0001)     ;
(PID.TID 0000.0001) rUnit2mass = /* convert r-units [Pa] to mass per unit area [kg/m2] */
(PID.TID 0000.0001)                 1.020408163265306E-01
(PID.TID 0000.0001)     ;
(PID.TID 0000.0001) drC =   /* C spacing ( units of r ) */
(PID.TID 0000.0001)                 2.000000000000000E+03,      /* K =  1 */
(PID.TID 0000.0001)    24 @  4.000000000000000E+03              /* K =  2: 25 */
(PID.TID 0000.0001)     ;
(PID.TID 0000.0001) drF =   /* W spacing ( units of r ) */
(PID.TID 0000.0001)    25 @  4.000000000000000E+03              /* K =  1: 25 */
(PID.TID 0000.0001)     ;
(PID.TID 0000.0001) delX = /* U spacing ( m - cartesian, degrees - spherical ) */
(PID.TID 0000.0001)   128 @  2.812500000000000E+00              /* I =  1:128 */
(PID.TID 0000.0001)     ;
(PID.TID 0000.0001) delY = /* V spacing ( m - cartesian, degrees - spherical ) */
(PID.TID 0000.0001)    64 @  2.812500000000000E+00              /* J =  1: 64 */
(PID.TID 0000.0001)     ;
(PID.TID 0000.0001) xgOrigin = /* X-axis origin of West  edge (cartesian: m, lat-lon: deg) */
(PID.TID 0000.0001)                 0.000000000000000E+00
(PID.TID 0000.0001)     ;
(PID.TID 0000.0001) ygOrigin = /* Y-axis origin of South edge (cartesian: m, lat-lon: deg) */
(PID.TID 0000.0001)                -9.000000000000000E+01
(PID.TID 0000.0001)     ;
(PID.TID 0000.0001) rSphere =  /* Radius ( ignored - cartesian, m - spherical ) */
(PID.TID 0000.0001)                 6.370000000000000E+06
(PID.TID 0000.0001)     ;
(PID.TID 0000.0001) deepAtmosphere = /* Deep/Shallow Atmosphere flag (True/False) */
(PID.TID 0000.0001)                   F
(PID.TID 0000.0001)     ;
(PID.TID 0000.0001) xC =  /* xC(:,1,:,1) : P-point X coord ( deg. or m if cartesian) */
(PID.TID 0000.0001)                 1.406250000000000E+00,      /* I =  1 */
(PID.TID 0000.0001)                 4.218750000000000E+00,      /* I =  2 */
(PID.TID 0000.0001)                 7.031250000000000E+00,      /* I =  3 */
(PID.TID 0000.0001)      . . .
(PID.TID 0000.0001)                 8.296875000000000E+01,      /* I = 30 */
(PID.TID 0000.0001)                 8.578125000000000E+01,      /* I = 31 */
(PID.TID 0000.0001)                 8.859375000000000E+01,      /* I = 32 */
(PID.TID 0000.0001)                 9.140625000000000E+01,      /* I = 33 */
(PID.TID 0000.0001)                 9.421875000000000E+01,      /* I = 34 */
(PID.TID 0000.0001)                 9.703125000000000E+01,      /* I = 35 */
(PID.TID 0000.0001)      . . .
(PID.TID 0000.0001)                 1.729687500000000E+02,      /* I = 62 */
(PID.TID 0000.0001)                 1.757812500000000E+02,      /* I = 63 */
(PID.TID 0000.0001)                 1.785937500000000E+02,      /* I = 64 */
(PID.TID 0000.0001)                 1.814062500000000E+02,      /* I = 65 */
(PID.TID 0000.0001)                 1.842187500000000E+02,      /* I = 66 */
(PID.TID 0000.0001)                 1.870312500000000E+02,      /* I = 67 */
(PID.TID 0000.0001)      . . .
(PID.TID 0000.0001)                 2.629687500000000E+02,      /* I = 94 */
(PID.TID 0000.0001)                 2.657812500000000E+02,      /* I = 95 */
(PID.TID 0000.0001)                 2.685937500000000E+02,      /* I = 96 */
(PID.TID 0000.0001)                 2.714062500000000E+02,      /* I = 97 */
(PID.TID 0000.0001)                 2.742187500000000E+02,      /* I = 98 */
(PID.TID 0000.0001)                 2.770312500000000E+02,      /* I = 99 */
(PID.TID 0000.0001)      . . .
(PID.TID 0000.0001)                 3.529687500000000E+02,      /* I =126 */
(PID.TID 0000.0001)                 3.557812500000000E+02,      /* I =127 */
(PID.TID 0000.0001)                 3.585937500000000E+02       /* I =128 */
(PID.TID 0000.0001)     ;
(PID.TID 0000.0001) yC =  /* yC(1,:,1,:) : P-point Y coord ( deg. or m if cartesian) */
(PID.TID 0000.0001)                -8.859375000000000E+01,      /* J =  1 */
(PID.TID 0000.0001)                -8.578125000000000E+01,      /* J =  2 */
(PID.TID 0000.0001)                -8.296875000000000E+01,      /* J =  3 */
(PID.TID 0000.0001)                -8.015625000000000E+01,      /* J =  4 */
(PID.TID 0000.0001)                -7.734375000000000E+01,      /* J =  5 */
(PID.TID 0000.0001)                -7.453125000000000E+01,      /* J =  6 */
(PID.TID 0000.0001)                -7.171875000000000E+01,      /* J =  7 */
(PID.TID 0000.0001)                -6.890625000000000E+01,      /* J =  8 */
(PID.TID 0000.0001)                -6.609375000000000E+01,      /* J =  9 */
(PID.TID 0000.0001)                -6.328125000000000E+01,      /* J = 10 */
(PID.TID 0000.0001)                -6.046875000000000E+01,      /* J = 11 */
(PID.TID 0000.0001)                -5.765625000000000E+01,      /* J = 12 */
(PID.TID 0000.0001)                -5.484375000000000E+01,      /* J = 13 */
(PID.TID 0000.0001)                -5.203125000000000E+01,      /* J = 14 */
(PID.TID 0000.0001)                -4.921875000000000E+01,      /* J = 15 */
(PID.TID 0000.0001)                -4.640625000000000E+01,      /* J = 16 */
(PID.TID 0000.0001)                -4.359375000000000E+01,      /* J = 17 */
(PID.TID 0000.0001)                -4.078125000000000E+01,      /* J = 18 */
(PID.TID 0000.0001)                -3.796875000000000E+01,      /* J = 19 */
(PID.TID 0000.0001)                -3.515625000000000E+01,      /* J = 20 */
(PID.TID 0000.0001)                -3.234375000000000E+01,      /* J = 21 */
(PID.TID 0000.0001)                -2.953125000000000E+01,      /* J = 22 */
(PID.TID 0000.0001)                -2.671875000000000E+01,      /* J = 23 */
(PID.TID 0000.0001)                -2.390625000000000E+01,      /* J = 24 */
(PID.TID 0000.0001)                -2.109375000000000E+01,      /* J = 25 */
(PID.TID 0000.0001)                -1.828125000000000E+01,      /* J = 26 */
(PID.TID 0000.0001)                -1.546875000000000E+01,      /* J = 27 */
(PID.TID 0000.0001)                -1.265625000000000E+01,      /* J = 28 */
(PID.TID 0000.0001)                -9.843750000000000E+00,      /* J = 29 */
(PID.TID 0000.0001)                -7.031250000000000E+00,      /* J = 30 */
(PID.TID 0000.0001)                -4.218750000000000E+00,      /* J = 31 */
(PID.TID 0000.0001)                -1.406250000000000E+00,      /* J = 32 */
(PID.TID 0000.0001)                 1.406250000000000E+00,      /* J = 33 */
(PID.TID 0000.0001)                 4.218750000000000E+00,      /* J = 34 */
(PID.TID 0000.0001)                 7.031250000000000E+00,      /* J = 35 */
(PID.TID 0000.0001)                 9.843750000000000E+00,      /* J = 36 */
(PID.TID 0000.0001)                 1.265625000000000E+01,      /* J = 37 */
(PID.TID 0000.0001)                 1.546875000000000E+01,      /* J = 38 */
(PID.TID 0000.0001)                 1.828125000000000E+01,      /* J = 39 */
(PID.TID 0000.0001)                 2.109375000000000E+01,      /* J = 40 */
(PID.TID 0000.0001)                 2.390625000000000E+01,      /* J = 41 */
(PID.TID 0000.0001)                 2.671875000000000E+01,      /* J = 42 */
(PID.TID 0000.0001)                 2.953125000000000E+01,      /* J = 43 */
(PID.TID 0000.0001)                 3.234375000000000E+01,      /* J = 44 */
(PID.TID 0000.0001)                 3.515625000000000E+01,      /* J = 45 */
(PID.TID 0000.0001)                 3.796875000000000E+01,      /* J = 46 */
(PID.TID 0000.0001)                 4.078125000000000E+01,      /* J = 47 */
(PID.TID 0000.0001)                 4.359375000000000E+01,      /* J = 48 */
(PID.TID 0000.0001)                 4.640625000000000E+01,      /* J = 49 */
(PID.TID 0000.0001)                 4.921875000000000E+01,      /* J = 50 */
(PID.TID 0000.0001)                 5.203125000000000E+01,      /* J = 51 */
(PID.TID 0000.0001)                 5.484375000000000E+01,      /* J = 52 */
(PID.TID 0000.0001)                 5.765625000000000E+01,      /* J = 53 */
(PID.TID 0000.0001)                 6.046875000000000E+01,      /* J = 54 */
(PID.TID 0000.0001)                 6.328125000000000E+01,      /* J = 55 */
(PID.TID 0000.0001)                 6.609375000000000E+01,      /* J = 56 */
(PID.TID 0000.0001)                 6.890625000000000E+01,      /* J = 57 */
(PID.TID 0000.0001)                 7.171875000000000E+01,      /* J = 58 */
(PID.TID 0000.0001)                 7.453125000000000E+01,      /* J = 59 */
(PID.TID 0000.0001)                 7.734375000000000E+01,      /* J = 60 */
(PID.TID 0000.0001)                 8.015625000000000E+01,      /* J = 61 */
(PID.TID 0000.0001)                 8.296875000000000E+01,      /* J = 62 */
(PID.TID 0000.0001)                 8.578125000000000E+01,      /* J = 63 */
(PID.TID 0000.0001)                 8.859375000000000E+01       /* J = 64 */
(PID.TID 0000.0001)     ;
(PID.TID 0000.0001) rcoord = /* P-point R coordinate (  units of r ) */
(PID.TID 0000.0001)                 9.800000000000000E+04,      /* K =  1 */
(PID.TID 0000.0001)                 9.400000000000000E+04,      /* K =  2 */
(PID.TID 0000.0001)                 9.000000000000000E+04,      /* K =  3 */
(PID.TID 0000.0001)                 8.600000000000000E+04,      /* K =  4 */
(PID.TID 0000.0001)                 8.200000000000000E+04,      /* K =  5 */
(PID.TID 0000.0001)                 7.800000000000000E+04,      /* K =  6 */
(PID.TID 0000.0001)                 7.400000000000000E+04,      /* K =  7 */
(PID.TID 0000.0001)                 7.000000000000000E+04,      /* K =  8 */
(PID.TID 0000.0001)                 6.600000000000000E+04,      /* K =  9 */
(PID.TID 0000.0001)                 6.200000000000000E+04,      /* K = 10 */
(PID.TID 0000.0001)                 5.800000000000000E+04,      /* K = 11 */
(PID.TID 0000.0001)                 5.400000000000000E+04,      /* K = 12 */
(PID.TID 0000.0001)                 5.000000000000000E+04,      /* K = 13 */
(PID.TID 0000.0001)                 4.600000000000000E+04,      /* K = 14 */
(PID.TID 0000.0001)                 4.200000000000000E+04,      /* K = 15 */
(PID.TID 0000.0001)                 3.800000000000000E+04,      /* K = 16 */
(PID.TID 0000.0001)                 3.400000000000000E+04,      /* K = 17 */
(PID.TID 0000.0001)                 3.000000000000000E+04,      /* K = 18 */
(PID.TID 0000.0001)                 2.600000000000000E+04,      /* K = 19 */
(PID.TID 0000.0001)                 2.200000000000000E+04,      /* K = 20 */
(PID.TID 0000.0001)                 1.800000000000000E+04,      /* K = 21 */
(PID.TID 0000.0001)                 1.400000000000000E+04,      /* K = 22 */
(PID.TID 0000.0001)                 1.000000000000000E+04,      /* K = 23 */
(PID.TID 0000.0001)                 6.000000000000000E+03,      /* K = 24 */
(PID.TID 0000.0001)                 2.000000000000000E+03       /* K = 25 */
(PID.TID 0000.0001)     ;
(PID.TID 0000.0001) rF =   /* W-Interf. R coordinate (  units of r ) */
(PID.TID 0000.0001)                 1.000000000000000E+05,      /* K =  1 */
(PID.TID 0000.0001)                 9.600000000000000E+04,      /* K =  2 */
(PID.TID 0000.0001)                 9.200000000000000E+04,      /* K =  3 */
(PID.TID 0000.0001)                 8.800000000000000E+04,      /* K =  4 */
(PID.TID 0000.0001)                 8.400000000000000E+04,      /* K =  5 */
(PID.TID 0000.0001)                 8.000000000000000E+04,      /* K =  6 */
(PID.TID 0000.0001)                 7.600000000000000E+04,      /* K =  7 */
(PID.TID 0000.0001)                 7.200000000000000E+04,      /* K =  8 */
(PID.TID 0000.0001)                 6.800000000000000E+04,      /* K =  9 */
(PID.TID 0000.0001)                 6.400000000000000E+04,      /* K = 10 */
(PID.TID 0000.0001)                 6.000000000000000E+04,      /* K = 11 */
(PID.TID 0000.0001)                 5.600000000000000E+04,      /* K = 12 */
(PID.TID 0000.0001)                 5.200000000000000E+04,      /* K = 13 */
(PID.TID 0000.0001)                 4.800000000000000E+04,      /* K = 14 */
(PID.TID 0000.0001)                 4.400000000000000E+04,      /* K = 15 */
(PID.TID 0000.0001)                 4.000000000000000E+04,      /* K = 16 */
(PID.TID 0000.0001)                 3.600000000000000E+04,      /* K = 17 */
(PID.TID 0000.0001)                 3.200000000000000E+04,      /* K = 18 */
(PID.TID 0000.0001)                 2.800000000000000E+04,      /* K = 19 */
(PID.TID 0000.0001)                 2.400000000000000E+04,      /* K = 20 */
(PID.TID 0000.0001)                 2.000000000000000E+04,      /* K = 21 */
(PID.TID 0000.0001)                 1.600000000000000E+04,      /* K = 22 */
(PID.TID 0000.0001)                 1.200000000000000E+04,      /* K = 23 */
(PID.TID 0000.0001)                 8.000000000000000E+03,      /* K = 24 */
(PID.TID 0000.0001)                 4.000000000000000E+03,      /* K = 25 */
(PID.TID 0000.0001)                 0.000000000000000E+00       /* K = 26 */
(PID.TID 0000.0001)     ;
(PID.TID 0000.0001) deepFacC = /* deep-model grid factor @ cell-Center (-) */
(PID.TID 0000.0001)    25 @  1.000000000000000E+00              /* K =  1: 25 */
(PID.TID 0000.0001)     ;
(PID.TID 0000.0001) deepFacF = /* deep-model grid factor @ W-Interface (-) */
(PID.TID 0000.0001)    26 @  1.000000000000000E+00              /* K =  1: 26 */
(PID.TID 0000.0001)     ;
(PID.TID 0000.0001) rVel2wUnit = /* convert units: rVel -> wSpeed (=1 if z-coord)*/
(PID.TID 0000.0001)                 8.646347755102038E-02,      /* K =  1 */
(PID.TID 0000.0001)                 8.906697977922619E-02,      /* K =  2 */
(PID.TID 0000.0001)                 9.192497232839422E-02,      /* K =  3 */
(PID.TID 0000.0001)                 9.501889754949013E-02,      /* K =  4 */
(PID.TID 0000.0001)                 9.836198118416517E-02,      /* K =  5 */
(PID.TID 0000.0001)                 1.019877430527518E-01,      /* K =  6 */
(PID.TID 0000.0001)                 1.059540195016592E-01,      /* K =  7 */
(PID.TID 0000.0001)                 1.103111240008786E-01,      /* K =  8 */
(PID.TID 0000.0001)                 1.151202317985317E-01,      /* K =  9 */
(PID.TID 0000.0001)                 1.204565470465289E-01,      /* K = 10 */
(PID.TID 0000.0001)                 1.264136643186996E-01,      /* K = 11 */
(PID.TID 0000.0001)                 1.331096915153863E-01,      /* K = 12 */
(PID.TID 0000.0001)                 1.407894887543596E-01,      /* K = 13 */
(PID.TID 0000.0001)                 1.499145566102057E-01,      /* K = 14 */
(PID.TID 0000.0001)                 1.611333325198514E-01,      /* K = 15 */
(PID.TID 0000.0001)                 1.747112628274459E-01,      /* K = 16 */
(PID.TID 0000.0001)                 1.907975435028579E-01,      /* K = 17 */
(PID.TID 0000.0001)                 2.101879269615190E-01,      /* K = 18 */
(PID.TID 0000.0001)                 2.341312252312562E-01,      /* K = 19 */
(PID.TID 0000.0001)                 2.650365607010458E-01,      /* K = 20 */
(PID.TID 0000.0001)                 3.083730901141761E-01,      /* K = 21 */
(PID.TID 0000.0001)                 3.670800188780264E-01,      /* K = 22 */
(PID.TID 0000.0001)                 4.670010642701491E-01,      /* K = 23 */
(PID.TID 0000.0001)                 6.952203636432480E-01,      /* K = 24 */
(PID.TID 0000.0001)                 1.449319635576333E+00,      /* K = 25 */
(PID.TID 0000.0001)                 1.000000000000000E+00       /* K = 26 */
(PID.TID 0000.0001)     ;
(PID.TID 0000.0001) wUnit2rVel = /* convert units: wSpeed -> rVel (=1 if z-coord)*/
(PID.TID 0000.0001)                 1.156557691552390E+01,      /* K =  1 */
(PID.TID 0000.0001)                 1.122750544004904E+01,      /* K =  2 */
(PID.TID 0000.0001)                 1.087843678024274E+01,      /* K =  3 */
(PID.TID 0000.0001)                 1.052422229461413E+01,      /* K =  4 */
(PID.TID 0000.0001)                 1.016652966889391E+01,      /* K =  5 */
(PID.TID 0000.0001)                 9.805099809716971E+00,      /* K =  6 */
(PID.TID 0000.0001)                 9.438056288032945E+00,      /* K =  7 */
(PID.TID 0000.0001)                 9.065268884324263E+00,      /* K =  8 */
(PID.TID 0000.0001)                 8.686570417527200E+00,      /* K =  9 */
(PID.TID 0000.0001)                 8.301748842374909E+00,      /* K = 10 */
(PID.TID 0000.0001)                 7.910537246028364E+00,      /* K = 11 */
(PID.TID 0000.0001)                 7.512600988068615E+00,      /* K = 12 */
(PID.TID 0000.0001)                 7.102802978031517E+00,      /* K = 13 */
(PID.TID 0000.0001)                 6.670466315023094E+00,      /* K = 14 */
(PID.TID 0000.0001)                 6.206040577462775E+00,      /* K = 15 */
(PID.TID 0000.0001)                 5.723729448327855E+00,      /* K = 16 */
(PID.TID 0000.0001)                 5.241157625202974E+00,      /* K = 17 */
(PID.TID 0000.0001)                 4.757647189617503E+00,      /* K = 18 */
(PID.TID 0000.0001)                 4.271109071471691E+00,      /* K = 19 */
(PID.TID 0000.0001)                 3.773064355177675E+00,      /* K = 20 */
(PID.TID 0000.0001)                 3.242825110419806E+00,      /* K = 21 */
(PID.TID 0000.0001)                 2.724201668770973E+00,      /* K = 22 */
(PID.TID 0000.0001)                 2.141322743156584E+00,      /* K = 23 */
(PID.TID 0000.0001)                 1.438392849656443E+00,      /* K = 24 */
(PID.TID 0000.0001)                 6.899789221460056E-01,      /* K = 25 */
(PID.TID 0000.0001)                 1.000000000000000E+00       /* K = 26 */
(PID.TID 0000.0001)     ;
(PID.TID 0000.0001) dBdrRef = /* Vertical grad. of reference buoyancy [(m/s/r)^2] */
(PID.TID 0000.0001)                 0.000000000000000E+00,      /* K =  1 */
(PID.TID 0000.0001)                 2.216693077306213E-07,      /* K =  2 */
(PID.TID 0000.0001)                 3.046843541189793E-07,      /* K =  3 */
(PID.TID 0000.0001)                 3.145165084666933E-07,      /* K =  4 */
(PID.TID 0000.0001)                 3.251463639141412E-07,      /* K =  5 */
(PID.TID 0000.0001)                 3.366815112078671E-07,      /* K =  6 */
(PID.TID 0000.0001)                 4.365630540975816E-07,      /* K =  7 */
(PID.TID 0000.0001)                 4.537599944057297E-07,      /* K =  8 */
(PID.TID 0000.0001)                 5.672139050641978E-07,      /* K =  9 */
(PID.TID 0000.0001)                 5.923292024930536E-07,      /* K = 10 */
(PID.TID 0000.0001)                 7.236730276329351E-07,      /* K = 11 */
(PID.TID 0000.0001)                 7.602549797133576E-07,      /* K = 12 */
(PID.TID 0000.0001)                 1.374198975414388E-06,      /* K = 13 */
(PID.TID 0000.0001)                 2.667742594446882E-06,      /* K = 14 */
(PID.TID 0000.0001)                 5.032768709250204E-06,      /* K = 15 */
(PID.TID 0000.0001)                 5.525951724679840E-06,      /* K = 16 */
(PID.TID 0000.0001)                 5.958584474361876E-06,      /* K = 17 */
(PID.TID 0000.0001)                 6.482663581512087E-06,      /* K = 18 */
(PID.TID 0000.0001)                 7.133171633423985E-06,      /* K = 19 */
(PID.TID 0000.0001)                 9.958086913114692E-06,      /* K = 20 */
(PID.TID 0000.0001)                 2.043050623187796E-05,      /* K = 21 */
(PID.TID 0000.0001)                 2.665396382651073E-06,      /* K = 22 */
(PID.TID 0000.0001)                 7.646381598776109E-05,      /* K = 23 */
(PID.TID 0000.0001)                 2.512961350297551E-04,      /* K = 24 */
(PID.TID 0000.0001)                 1.170571625826939E-03       /* K = 25 */
(PID.TID 0000.0001)     ;
(PID.TID 0000.0001) rotateGrid = /* use rotated grid ( True/False ) */
(PID.TID 0000.0001)                   F
(PID.TID 0000.0001)     ;
(PID.TID 0000.0001) phiEuler = /* Euler angle, rotation about original z-coordinate [rad] */
(PID.TID 0000.0001)                 0.000000000000000E+00
(PID.TID 0000.0001)     ;
(PID.TID 0000.0001) thetaEuler = /* Euler angle, rotation about new x-coordinate [rad] */
(PID.TID 0000.0001)                 0.000000000000000E+00
(PID.TID 0000.0001)     ;
(PID.TID 0000.0001) psiEuler = /* Euler angle, rotation about new z-coordinate [rad] */
(PID.TID 0000.0001)                 0.000000000000000E+00
(PID.TID 0000.0001)     ;
(PID.TID 0000.0001) dxF =  /* dxF(:,1,:,1) ( units: m ) */
(PID.TID 0000.0001)   128 @  7.673714381622299E+03              /* I =  1:128 */
(PID.TID 0000.0001)     ;
(PID.TID 0000.0001) dxF =  /* dxF(1,:,1,:) ( units: m ) */
(PID.TID 0000.0001)                 7.673714381622299E+03,      /* J =  1 */
(PID.TID 0000.0001)                 2.300265649478360E+04,      /* J =  2 */
(PID.TID 0000.0001)                 3.827618319365421E+04,      /* J =  3 */
(PID.TID 0000.0001)                 5.345749921461356E+04,      /* J =  4 */
(PID.TID 0000.0001)                 6.851003143764105E+04,      /* J =  5 */
(PID.TID 0000.0001)                 8.339751699416524E+04,      /* J =  6 */
(PID.TID 0000.0001)                 9.808409062749070E+04,      /* J =  7 */
(PID.TID 0000.0001)                 1.125343710953429E+05,      /* J =  8 */
(PID.TID 0000.0001)                 1.267135464063795E+05,      /* J =  9 */
(PID.TID 0000.0001)                 1.405874576853274E+05,      /* J = 10 */
(PID.TID 0000.0001)                 1.541226814647045E+05,      /* J = 11 */
(PID.TID 0000.0001)                 1.672866102048804E+05,      /* J = 12 */
(PID.TID 0000.0001)                 1.800475308484964E+05,      /* J = 13 */
(PID.TID 0000.0001)                 1.923747012199971E+05,      /* J = 14 */
(PID.TID 0000.0001)                 2.042384240862251E+05,      /* J = 15 */
(PID.TID 0000.0001)                 2.156101186996563E+05,      /* J = 16 */
(PID.TID 0000.0001)                 2.264623896519241E+05,      /* J = 17 */
(PID.TID 0000.0001)                 2.367690928717577E+05,      /* J = 18 */
(PID.TID 0000.0001)                 2.465053986083400E+05,      /* J = 19 */
(PID.TID 0000.0001)                 2.556478512483520E+05,      /* J = 20 */
(PID.TID 0000.0001)                 2.641744258225996E+05,      /* J = 21 */
(PID.TID 0000.0001)                 2.720645810660936E+05,      /* J = 22 */
(PID.TID 0000.0001)                 2.792993089037565E+05,      /* J = 23 */
(PID.TID 0000.0001)                 2.858611802425402E+05,      /* J = 24 */
(PID.TID 0000.0001)                 2.917343869596373E+05,      /* J = 25 */
(PID.TID 0000.0001)                 2.969047799856344E+05,      /* J = 26 */
(PID.TID 0000.0001)                 3.013599033908587E+05,      /* J = 27 */
(PID.TID 0000.0001)                 3.050890243928043E+05,      /* J = 28 */
(PID.TID 0000.0001)                 3.080831592123453E+05,      /* J = 29 */
(PID.TID 0000.0001)                 3.103350947164461E+05,      /* J = 30 */
(PID.TID 0000.0001)                 3.118394057952309E+05,      /* J = 31 */
(PID.TID 0000.0001)     2 @  3.125924684315491E+05,             /* J = 32: 33 */
(PID.TID 0000.0001)                 3.118394057952309E+05,      /* J = 34 */
(PID.TID 0000.0001)                 3.103350947164461E+05,      /* J = 35 */
(PID.TID 0000.0001)                 3.080831592123453E+05,      /* J = 36 */
(PID.TID 0000.0001)                 3.050890243928043E+05,      /* J = 37 */
(PID.TID 0000.0001)                 3.013599033908587E+05,      /* J = 38 */
(PID.TID 0000.0001)                 2.969047799856344E+05,      /* J = 39 */
(PID.TID 0000.0001)                 2.917343869596373E+05,      /* J = 40 */
(PID.TID 0000.0001)                 2.858611802425402E+05,      /* J = 41 */
(PID.TID 0000.0001)                 2.792993089037565E+05,      /* J = 42 */
(PID.TID 0000.0001)                 2.720645810660936E+05,      /* J = 43 */
(PID.TID 0000.0001)                 2.641744258225996E+05,      /* J = 44 */
(PID.TID 0000.0001)                 2.556478512483520E+05,      /* J = 45 */
(PID.TID 0000.0001)                 2.465053986083400E+05,      /* J = 46 */
(PID.TID 0000.0001)                 2.367690928717577E+05,      /* J = 47 */
(PID.TID 0000.0001)                 2.264623896519241E+05,      /* J = 48 */
(PID.TID 0000.0001)                 2.156101186996563E+05,      /* J = 49 */
(PID.TID 0000.0001)                 2.042384240862251E+05,      /* J = 50 */
(PID.TID 0000.0001)                 1.923747012199971E+05,      /* J = 51 */
(PID.TID 0000.0001)                 1.800475308484964E+05,      /* J = 52 */
(PID.TID 0000.0001)                 1.672866102048804E+05,      /* J = 53 */
(PID.TID 0000.0001)                 1.541226814647045E+05,      /* J = 54 */
(PID.TID 0000.0001)                 1.405874576853274E+05,      /* J = 55 */
(PID.TID 0000.0001)                 1.267135464063795E+05,      /* J = 56 */
(PID.TID 0000.0001)                 1.125343710953429E+05,      /* J = 57 */
(PID.TID 0000.0001)                 9.808409062749070E+04,      /* J = 58 */
(PID.TID 0000.0001)                 8.339751699416524E+04,      /* J = 59 */
(PID.TID 0000.0001)                 6.851003143764105E+04,      /* J = 60 */
(PID.TID 0000.0001)                 5.345749921461356E+04,      /* J = 61 */
(PID.TID 0000.0001)                 3.827618319365421E+04,      /* J = 62 */
(PID.TID 0000.0001)                 2.300265649478360E+04,      /* J = 63 */
(PID.TID 0000.0001)                 7.673714381622299E+03       /* J = 64 */
(PID.TID 0000.0001)     ;
(PID.TID 0000.0001) dyF =  /* dyF(:,1,:,1) ( units: m ) */
(PID.TID 0000.0001)   128 @  3.126866438026091E+05              /* I =  1:128 */
(PID.TID 0000.0001)     ;
(PID.TID 0000.0001) dyF =  /* dyF(1,:,1,:) ( units: m ) */
(PID.TID 0000.0001)    64 @  3.126866438026091E+05              /* J =  1: 64 */
(PID.TID 0000.0001)     ;
(PID.TID 0000.0001) dxG =  /* dxG(:,1,:,1) ( units: m ) */
(PID.TID 0000.0001)   128 @  0.000000000000000E+00              /* I =  1:128 */
(PID.TID 0000.0001)     ;
(PID.TID 0000.0001) dxG =  /* dxG(1,:,1,:) ( units: m ) */
(PID.TID 0000.0001)                 0.000000000000000E+00,      /* J =  1 */
(PID.TID 0000.0001)                 1.534280640463982E+04,      /* J =  2 */
(PID.TID 0000.0001)                 3.064865064477965E+04,      /* J =  3 */
(PID.TID 0000.0001)                 4.588065960101153E+04,      /* J =  4 */
(PID.TID 0000.0001)                 6.100213802959342E+04,      /* J =  5 */
(PID.TID 0000.0001)                 7.597665696450579E+04,      /* J =  6 */
(PID.TID 0000.0001)                 9.076814147802141E+04,      /* J =  7 */
(PID.TID 0000.0001)                 1.053409575883663E+05,      /* J =  8 */
(PID.TID 0000.0001)                 1.196599981051027E+05,      /* J =  9 */
(PID.TID 0000.0001)                 1.336907672054259E+05,      /* J = 10 */
(PID.TID 0000.0001)                 1.473994635376230E+05,      /* J = 11 */
(PID.TID 0000.0001)                 1.607530616514898E+05,      /* J = 12 */
(PID.TID 0000.0001)                 1.737193915595329E+05,      /* J = 13 */
(PID.TID 0000.0001)                 1.862672162372875E+05,      /* J = 14 */
(PID.TID 0000.0001)                 1.983663068760452E+05,      /* J = 15 */
(PID.TID 0000.0001)                 2.099875157067021E+05,      /* J = 16 */
(PID.TID 0000.0001)                 2.211028462192875E+05,      /* J = 17 */
(PID.TID 0000.0001)                 2.316855206090085E+05,      /* J = 18 */
(PID.TID 0000.0001)                 2.417100442863276E+05,      /* J = 19 */
(PID.TID 0000.0001)                 2.511522672956614E+05,      /* J = 20 */
(PID.TID 0000.0001)                 2.599894424947394E+05,      /* J = 21 */
(PID.TID 0000.0001)                 2.682002803544621E+05,      /* J = 22 */
(PID.TID 0000.0001)                 2.757650002472408E+05,      /* J = 23 */
(PID.TID 0000.0001)                 2.826653781002625E+05,      /* J = 24 */
(PID.TID 0000.0001)                 2.888847902988777E+05,      /* J = 25 */
(PID.TID 0000.0001)                 2.944082537343438E+05,      /* J = 26 */
(PID.TID 0000.0001)                 2.992224618994463E+05,      /* J = 27 */
(PID.TID 0000.0001)                 3.033158169450409E+05,      /* J = 28 */
(PID.TID 0000.0001)                 3.066784576202870E+05,      /* J = 29 */
(PID.TID 0000.0001)                 3.093022830292655E+05,      /* J = 30 */
(PID.TID 0000.0001)                 3.111809721467461E+05,      /* J = 31 */
(PID.TID 0000.0001)                 3.123099990460912E+05,      /* J = 32 */
(PID.TID 0000.0001)                 3.126866438026091E+05,      /* J = 33 */
(PID.TID 0000.0001)                 3.123099990460912E+05,      /* J = 34 */
(PID.TID 0000.0001)                 3.111809721467461E+05,      /* J = 35 */
(PID.TID 0000.0001)                 3.093022830292655E+05,      /* J = 36 */
(PID.TID 0000.0001)                 3.066784576202870E+05,      /* J = 37 */
(PID.TID 0000.0001)                 3.033158169450409E+05,      /* J = 38 */
(PID.TID 0000.0001)                 2.992224618994463E+05,      /* J = 39 */
(PID.TID 0000.0001)                 2.944082537343438E+05,      /* J = 40 */
(PID.TID 0000.0001)                 2.888847902988777E+05,      /* J = 41 */
(PID.TID 0000.0001)                 2.826653781002625E+05,      /* J = 42 */
(PID.TID 0000.0001)                 2.757650002472408E+05,      /* J = 43 */
(PID.TID 0000.0001)                 2.682002803544621E+05,      /* J = 44 */
(PID.TID 0000.0001)                 2.599894424947394E+05,      /* J = 45 */
(PID.TID 0000.0001)                 2.511522672956614E+05,      /* J = 46 */
(PID.TID 0000.0001)                 2.417100442863276E+05,      /* J = 47 */
(PID.TID 0000.0001)                 2.316855206090085E+05,      /* J = 48 */
(PID.TID 0000.0001)                 2.211028462192875E+05,      /* J = 49 */
(PID.TID 0000.0001)                 2.099875157067021E+05,      /* J = 50 */
(PID.TID 0000.0001)                 1.983663068760452E+05,      /* J = 51 */
(PID.TID 0000.0001)                 1.862672162372875E+05,      /* J = 52 */
(PID.TID 0000.0001)                 1.737193915595329E+05,      /* J = 53 */
(PID.TID 0000.0001)                 1.607530616514898E+05,      /* J = 54 */
(PID.TID 0000.0001)                 1.473994635376230E+05,      /* J = 55 */
(PID.TID 0000.0001)                 1.336907672054259E+05,      /* J = 56 */
(PID.TID 0000.0001)                 1.196599981051027E+05,      /* J = 57 */
(PID.TID 0000.0001)                 1.053409575883663E+05,      /* J = 58 */
(PID.TID 0000.0001)                 9.076814147802141E+04,      /* J = 59 */
(PID.TID 0000.0001)                 7.597665696450579E+04,      /* J = 60 */
(PID.TID 0000.0001)                 6.100213802959342E+04,      /* J = 61 */
(PID.TID 0000.0001)                 4.588065960101153E+04,      /* J = 62 */
(PID.TID 0000.0001)                 3.064865064477965E+04,      /* J = 63 */
(PID.TID 0000.0001)                 1.534280640463982E+04       /* J = 64 */
(PID.TID 0000.0001)     ;
(PID.TID 0000.0001) dyG =  /* dyG(:,1,:,1) ( units: m ) */
(PID.TID 0000.0001)   128 @  3.126866438026091E+05              /* I =  1:128 */
(PID.TID 0000.0001)     ;
(PID.TID 0000.0001) dyG =  /* dyG(1,:,1,:) ( units: m ) */
(PID.TID 0000.0001)    64 @  3.126866438026091E+05              /* J =  1: 64 */
(PID.TID 0000.0001)     ;
(PID.TID 0000.0001) dxC =  /* dxC(:,1,:,1) ( units: m ) */
(PID.TID 0000.0001)   128 @  7.673714381622299E+03              /* I =  1:128 */
(PID.TID 0000.0001)     ;
(PID.TID 0000.0001) dxC =  /* dxC(1,:,1,:) ( units: m ) */
(PID.TID 0000.0001)                 7.673714381622299E+03,      /* J =  1 */
(PID.TID 0000.0001)                 2.300265649478360E+04,      /* J =  2 */
(PID.TID 0000.0001)                 3.827618319365421E+04,      /* J =  3 */
(PID.TID 0000.0001)                 5.345749921461356E+04,      /* J =  4 */
(PID.TID 0000.0001)                 6.851003143764105E+04,      /* J =  5 */
(PID.TID 0000.0001)                 8.339751699416524E+04,      /* J =  6 */
(PID.TID 0000.0001)                 9.808409062749070E+04,      /* J =  7 */
(PID.TID 0000.0001)                 1.125343710953429E+05,      /* J =  8 */
(PID.TID 0000.0001)                 1.267135464063795E+05,      /* J =  9 */
(PID.TID 0000.0001)                 1.405874576853274E+05,      /* J = 10 */
(PID.TID 0000.0001)                 1.541226814647045E+05,      /* J = 11 */
(PID.TID 0000.0001)                 1.672866102048804E+05,      /* J = 12 */
(PID.TID 0000.0001)                 1.800475308484964E+05,      /* J = 13 */
(PID.TID 0000.0001)                 1.923747012199971E+05,      /* J = 14 */
(PID.TID 0000.0001)                 2.042384240862251E+05,      /* J = 15 */
(PID.TID 0000.0001)                 2.156101186996563E+05,      /* J = 16 */
(PID.TID 0000.0001)                 2.264623896519241E+05,      /* J = 17 */
(PID.TID 0000.0001)                 2.367690928717577E+05,      /* J = 18 */
(PID.TID 0000.0001)                 2.465053986083400E+05,      /* J = 19 */
(PID.TID 0000.0001)                 2.556478512483520E+05,      /* J = 20 */
(PID.TID 0000.0001)                 2.641744258225996E+05,      /* J = 21 */
(PID.TID 0000.0001)                 2.720645810660936E+05,      /* J = 22 */
(PID.TID 0000.0001)                 2.792993089037565E+05,      /* J = 23 */
(PID.TID 0000.0001)                 2.858611802425402E+05,      /* J = 24 */
(PID.TID 0000.0001)                 2.917343869596373E+05,      /* J = 25 */
(PID.TID 0000.0001)                 2.969047799856344E+05,      /* J = 26 */
(PID.TID 0000.0001)                 3.013599033908587E+05,      /* J = 27 */
(PID.TID 0000.0001)                 3.050890243928043E+05,      /* J = 28 */
(PID.TID 0000.0001)                 3.080831592123453E+05,      /* J = 29 */
(PID.TID 0000.0001)                 3.103350947164461E+05,      /* J = 30 */
(PID.TID 0000.0001)                 3.118394057952309E+05,      /* J = 31 */
(PID.TID 0000.0001)     2 @  3.125924684315491E+05,             /* J = 32: 33 */
(PID.TID 0000.0001)                 3.118394057952309E+05,      /* J = 34 */
(PID.TID 0000.0001)                 3.103350947164461E+05,      /* J = 35 */
(PID.TID 0000.0001)                 3.080831592123453E+05,      /* J = 36 */
(PID.TID 0000.0001)                 3.050890243928043E+05,      /* J = 37 */
(PID.TID 0000.0001)                 3.013599033908587E+05,      /* J = 38 */
(PID.TID 0000.0001)                 2.969047799856344E+05,      /* J = 39 */
(PID.TID 0000.0001)                 2.917343869596373E+05,      /* J = 40 */
(PID.TID 0000.0001)                 2.858611802425402E+05,      /* J = 41 */
(PID.TID 0000.0001)                 2.792993089037565E+05,      /* J = 42 */
(PID.TID 0000.0001)                 2.720645810660936E+05,      /* J = 43 */
(PID.TID 0000.0001)                 2.641744258225996E+05,      /* J = 44 */
(PID.TID 0000.0001)                 2.556478512483520E+05,      /* J = 45 */
(PID.TID 0000.0001)                 2.465053986083400E+05,      /* J = 46 */
(PID.TID 0000.0001)                 2.367690928717577E+05,      /* J = 47 */
(PID.TID 0000.0001)                 2.264623896519241E+05,      /* J = 48 */
(PID.TID 0000.0001)                 2.156101186996563E+05,      /* J = 49 */
(PID.TID 0000.0001)                 2.042384240862251E+05,      /* J = 50 */
(PID.TID 0000.0001)                 1.923747012199971E+05,      /* J = 51 */
(PID.TID 0000.0001)                 1.800475308484964E+05,      /* J = 52 */
(PID.TID 0000.0001)                 1.672866102048804E+05,      /* J = 53 */
(PID.TID 0000.0001)                 1.541226814647045E+05,      /* J = 54 */
(PID.TID 0000.0001)                 1.405874576853274E+05,      /* J = 55 */
(PID.TID 0000.0001)                 1.267135464063795E+05,      /* J = 56 */
(PID.TID 0000.0001)                 1.125343710953429E+05,      /* J = 57 */
(PID.TID 0000.0001)                 9.808409062749070E+04,      /* J = 58 */
(PID.TID 0000.0001)                 8.339751699416524E+04,      /* J = 59 */
(PID.TID 0000.0001)                 6.851003143764105E+04,      /* J = 60 */
(PID.TID 0000.0001)                 5.345749921461356E+04,      /* J = 61 */
(PID.TID 0000.0001)                 3.827618319365421E+04,      /* J = 62 */
(PID.TID 0000.0001)                 2.300265649478360E+04,      /* J = 63 */
(PID.TID 0000.0001)                 7.673714381622299E+03       /* J = 64 */
(PID.TID 0000.0001)     ;
(PID.TID 0000.0001) dyC =  /* dyC(:,1,:,1) ( units: m ) */
(PID.TID 0000.0001)   128 @  3.126866438026091E+05              /* I =  1:128 */
(PID.TID 0000.0001)     ;
(PID.TID 0000.0001) dyC =  /* dyC(1,:,1,:) ( units: m ) */
(PID.TID 0000.0001)    64 @  3.126866438026091E+05              /* J =  1: 64 */
(PID.TID 0000.0001)     ;
(PID.TID 0000.0001) dxV =  /* dxV(:,1,:,1) ( units: m ) */
(PID.TID 0000.0001)   128 @  0.000000000000000E+00              /* I =  1:128 */
(PID.TID 0000.0001)     ;
(PID.TID 0000.0001) dxV =  /* dxV(1,:,1,:) ( units: m ) */
(PID.TID 0000.0001)                 0.000000000000000E+00,      /* J =  1 */
(PID.TID 0000.0001)                 1.534280640463982E+04,      /* J =  2 */
(PID.TID 0000.0001)                 3.064865064477965E+04,      /* J =  3 */
(PID.TID 0000.0001)                 4.588065960101153E+04,      /* J =  4 */
(PID.TID 0000.0001)                 6.100213802959342E+04,      /* J =  5 */
(PID.TID 0000.0001)                 7.597665696450579E+04,      /* J =  6 */
(PID.TID 0000.0001)                 9.076814147802141E+04,      /* J =  7 */
(PID.TID 0000.0001)                 1.053409575883663E+05,      /* J =  8 */
(PID.TID 0000.0001)                 1.196599981051027E+05,      /* J =  9 */
(PID.TID 0000.0001)                 1.336907672054259E+05,      /* J = 10 */
(PID.TID 0000.0001)                 1.473994635376230E+05,      /* J = 11 */
(PID.TID 0000.0001)                 1.607530616514898E+05,      /* J = 12 */
(PID.TID 0000.0001)                 1.737193915595329E+05,      /* J = 13 */
(PID.TID 0000.0001)                 1.862672162372875E+05,      /* J = 14 */
(PID.TID 0000.0001)                 1.983663068760452E+05,      /* J = 15 */
(PID.TID 0000.0001)                 2.099875157067021E+05,      /* J = 16 */
(PID.TID 0000.0001)                 2.211028462192875E+05,      /* J = 17 */
(PID.TID 0000.0001)                 2.316855206090085E+05,      /* J = 18 */
(PID.TID 0000.0001)                 2.417100442863276E+05,      /* J = 19 */
(PID.TID 0000.0001)                 2.511522672956614E+05,      /* J = 20 */
(PID.TID 0000.0001)                 2.599894424947394E+05,      /* J = 21 */
(PID.TID 0000.0001)                 2.682002803544621E+05,      /* J = 22 */
(PID.TID 0000.0001)                 2.757650002472408E+05,      /* J = 23 */
(PID.TID 0000.0001)                 2.826653781002625E+05,      /* J = 24 */
(PID.TID 0000.0001)                 2.888847902988777E+05,      /* J = 25 */
(PID.TID 0000.0001)                 2.944082537343438E+05,      /* J = 26 */
(PID.TID 0000.0001)                 2.992224618994463E+05,      /* J = 27 */
(PID.TID 0000.0001)                 3.033158169450409E+05,      /* J = 28 */
(PID.TID 0000.0001)                 3.066784576202870E+05,      /* J = 29 */
(PID.TID 0000.0001)                 3.093022830292655E+05,      /* J = 30 */
(PID.TID 0000.0001)                 3.111809721467461E+05,      /* J = 31 */
(PID.TID 0000.0001)                 3.123099990460912E+05,      /* J = 32 */
(PID.TID 0000.0001)                 3.126866438026091E+05,      /* J = 33 */
(PID.TID 0000.0001)                 3.123099990460912E+05,      /* J = 34 */
(PID.TID 0000.0001)                 3.111809721467461E+05,      /* J = 35 */
(PID.TID 0000.0001)                 3.093022830292655E+05,      /* J = 36 */
(PID.TID 0000.0001)                 3.066784576202870E+05,      /* J = 37 */
(PID.TID 0000.0001)                 3.033158169450409E+05,      /* J = 38 */
(PID.TID 0000.0001)                 2.992224618994463E+05,      /* J = 39 */
(PID.TID 0000.0001)                 2.944082537343438E+05,      /* J = 40 */
(PID.TID 0000.0001)                 2.888847902988777E+05,      /* J = 41 */
(PID.TID 0000.0001)                 2.826653781002625E+05,      /* J = 42 */
(PID.TID 0000.0001)                 2.757650002472408E+05,      /* J = 43 */
(PID.TID 0000.0001)                 2.682002803544621E+05,      /* J = 44 */
(PID.TID 0000.0001)                 2.599894424947394E+05,      /* J = 45 */
(PID.TID 0000.0001)                 2.511522672956614E+05,      /* J = 46 */
(PID.TID 0000.0001)                 2.417100442863276E+05,      /* J = 47 */
(PID.TID 0000.0001)                 2.316855206090085E+05,      /* J = 48 */
(PID.TID 0000.0001)                 2.211028462192875E+05,      /* J = 49 */
(PID.TID 0000.0001)                 2.099875157067021E+05,      /* J = 50 */
(PID.TID 0000.0001)                 1.983663068760452E+05,      /* J = 51 */
(PID.TID 0000.0001)                 1.862672162372875E+05,      /* J = 52 */
(PID.TID 0000.0001)                 1.737193915595329E+05,      /* J = 53 */
(PID.TID 0000.0001)                 1.607530616514898E+05,      /* J = 54 */
(PID.TID 0000.0001)                 1.473994635376230E+05,      /* J = 55 */
(PID.TID 0000.0001)                 1.336907672054259E+05,      /* J = 56 */
(PID.TID 0000.0001)                 1.196599981051027E+05,      /* J = 57 */
(PID.TID 0000.0001)                 1.053409575883663E+05,      /* J = 58 */
(PID.TID 0000.0001)                 9.076814147802141E+04,      /* J = 59 */
(PID.TID 0000.0001)                 7.597665696450579E+04,      /* J = 60 */
(PID.TID 0000.0001)                 6.100213802959342E+04,      /* J = 61 */
(PID.TID 0000.0001)                 4.588065960101153E+04,      /* J = 62 */
(PID.TID 0000.0001)                 3.064865064477965E+04,      /* J = 63 */
(PID.TID 0000.0001)                 1.534280640463982E+04       /* J = 64 */
(PID.TID 0000.0001)     ;
(PID.TID 0000.0001) dyU =  /* dyU(:,1,:,1) ( units: m ) */
(PID.TID 0000.0001)   128 @  3.126866438026091E+05              /* I =  1:128 */
(PID.TID 0000.0001)     ;
(PID.TID 0000.0001) dyU =  /* dyU(1,:,1,:) ( units: m ) */
(PID.TID 0000.0001)    64 @  3.126866438026091E+05              /* J =  1: 64 */
(PID.TID 0000.0001)     ;
(PID.TID 0000.0001) rA  =  /* rA (:,1,:,1) ( units: m^2 ) */
(PID.TID 0000.0001)   128 @  2.399227099019018E+09              /* I =  1:128 */
(PID.TID 0000.0001)     ;
(PID.TID 0000.0001) rA  =  /* rA (1,:,1,:) ( units: m^2 ) */
(PID.TID 0000.0001)                 2.399227099019018E+09,      /* J =  1 */
(PID.TID 0000.0001)                 7.191901348828056E+09,      /* J =  2 */
(PID.TID 0000.0001)                 1.196724967835171E+10,      /* J =  3 */
(PID.TID 0000.0001)                 1.671376785519299E+10,      /* J =  4 */
(PID.TID 0000.0001)                 2.142002110131771E+10,      /* J =  5 */
(PID.TID 0000.0001)                 2.607467164043704E+10,      /* J =  6 */
(PID.TID 0000.0001)                 3.066650601170349E+10,      /* J =  7 */
(PID.TID 0000.0001)                 3.518446208391881E+10,      /* J =  8 */
(PID.TID 0000.0001)                 3.961765570517892E+10,      /* J =  9 */
(PID.TID 0000.0001)                 4.395540692374860E+10,      /* J = 10 */
(PID.TID 0000.0001)                 4.818726571700000E+10,      /* J = 11 */
(PID.TID 0000.0001)                 5.230303716643333E+10,      /* J = 12 */
(PID.TID 0000.0001)                 5.629280601812741E+10,      /* J = 13 */
(PID.TID 0000.0001)                 6.014696056945659E+10,      /* J = 14 */
(PID.TID 0000.0001)                 6.385621582452237E+10,      /* J = 15 */
(PID.TID 0000.0001)                 6.741163586252303E+10,      /* J = 16 */
(PID.TID 0000.0001)                 7.080465536516846E+10,      /* J = 17 */
(PID.TID 0000.0001)                 7.402710025128452E+10,      /* J = 18 */
(PID.TID 0000.0001)                 7.707120736888658E+10,      /* J = 19 */
(PID.TID 0000.0001)                 7.992964319729683E+10,      /* J = 20 */
(PID.TID 0000.0001)                 8.259552151423444E+10,      /* J = 21 */
(PID.TID 0000.0001)                 8.506241998533159E+10,      /* J = 22 */
(PID.TID 0000.0001)                 8.732439563609566E+10,      /* J = 23 */
(PID.TID 0000.0001)                 8.937599916905872E+10,      /* J = 24 */
(PID.TID 0000.0001)                 9.121228809161066E+10,      /* J = 25 */
(PID.TID 0000.0001)                 9.282883862289705E+10,      /* J = 26 */
(PID.TID 0000.0001)                 9.422175635109474E+10,      /* J = 27 */
(PID.TID 0000.0001)                 9.538768561539165E+10,      /* J = 28 */
(PID.TID 0000.0001)                 9.632381759006650E+10,      /* J = 29 */
(PID.TID 0000.0001)                 9.702789705119698E+10,      /* J = 30 */
(PID.TID 0000.0001)                 9.749822780969106E+10,      /* J = 31 */
(PID.TID 0000.0001)     2 @  9.773367679755542E+10,             /* J = 32: 33 */
(PID.TID 0000.0001)                 9.749822780969106E+10,      /* J = 34 */
(PID.TID 0000.0001)                 9.702789705119698E+10,      /* J = 35 */
(PID.TID 0000.0001)                 9.632381759006650E+10,      /* J = 36 */
(PID.TID 0000.0001)                 9.538768561539165E+10,      /* J = 37 */
(PID.TID 0000.0001)                 9.422175635109474E+10,      /* J = 38 */
(PID.TID 0000.0001)                 9.282883862289705E+10,      /* J = 39 */
(PID.TID 0000.0001)                 9.121228809161066E+10,      /* J = 40 */
(PID.TID 0000.0001)                 8.937599916905872E+10,      /* J = 41 */
(PID.TID 0000.0001)                 8.732439563609566E+10,      /* J = 42 */
(PID.TID 0000.0001)                 8.506241998533159E+10,      /* J = 43 */
(PID.TID 0000.0001)                 8.259552151423444E+10,      /* J = 44 */
(PID.TID 0000.0001)                 7.992964319729683E+10,      /* J = 45 */
(PID.TID 0000.0001)                 7.707120736888658E+10,      /* J = 46 */
(PID.TID 0000.0001)                 7.402710025128452E+10,      /* J = 47 */
(PID.TID 0000.0001)                 7.080465536516846E+10,      /* J = 48 */
(PID.TID 0000.0001)                 6.741163586252303E+10,      /* J = 49 */
(PID.TID 0000.0001)                 6.385621582452237E+10,      /* J = 50 */
(PID.TID 0000.0001)                 6.014696056945659E+10,      /* J = 51 */
(PID.TID 0000.0001)                 5.629280601812741E+10,      /* J = 52 */
(PID.TID 0000.0001)                 5.230303716643333E+10,      /* J = 53 */
(PID.TID 0000.0001)                 4.818726571700000E+10,      /* J = 54 */
(PID.TID 0000.0001)                 4.395540692374860E+10,      /* J = 55 */
(PID.TID 0000.0001)                 3.961765570517892E+10,      /* J = 56 */
(PID.TID 0000.0001)                 3.518446208391881E+10,      /* J = 57 */
(PID.TID 0000.0001)                 3.066650601170349E+10,      /* J = 58 */
(PID.TID 0000.0001)                 2.607467164043704E+10,      /* J = 59 */
(PID.TID 0000.0001)                 2.142002110131771E+10,      /* J = 60 */
(PID.TID 0000.0001)                 1.671376785519299E+10,      /* J = 61 */
(PID.TID 0000.0001)                 1.196724967835171E+10,      /* J = 62 */
(PID.TID 0000.0001)                 7.191901348828056E+09,      /* J = 63 */
(PID.TID 0000.0001)                 2.399227099019018E+09       /* J = 64 */
(PID.TID 0000.0001)     ;
(PID.TID 0000.0001) rAw =  /* rAw(:,1,:,1) ( units: m^2 ) */
(PID.TID 0000.0001)   128 @  2.399227099019018E+09              /* I =  1:128 */
(PID.TID 0000.0001)     ;
(PID.TID 0000.0001) rAw =  /* rAw(1,:,1,:) ( units: m^2 ) */
(PID.TID 0000.0001)                 2.399227099019018E+09,      /* J =  1 */
(PID.TID 0000.0001)                 7.191901348828056E+09,      /* J =  2 */
(PID.TID 0000.0001)                 1.196724967835171E+10,      /* J =  3 */
(PID.TID 0000.0001)                 1.671376785519299E+10,      /* J =  4 */
(PID.TID 0000.0001)                 2.142002110131771E+10,      /* J =  5 */
(PID.TID 0000.0001)                 2.607467164043704E+10,      /* J =  6 */
(PID.TID 0000.0001)                 3.066650601170349E+10,      /* J =  7 */
(PID.TID 0000.0001)                 3.518446208391881E+10,      /* J =  8 */
(PID.TID 0000.0001)                 3.961765570517892E+10,      /* J =  9 */
(PID.TID 0000.0001)                 4.395540692374860E+10,      /* J = 10 */
(PID.TID 0000.0001)                 4.818726571700000E+10,      /* J = 11 */
(PID.TID 0000.0001)                 5.230303716643333E+10,      /* J = 12 */
(PID.TID 0000.0001)                 5.629280601812741E+10,      /* J = 13 */
(PID.TID 0000.0001)                 6.014696056945659E+10,      /* J = 14 */
(PID.TID 0000.0001)                 6.385621582452237E+10,      /* J = 15 */
(PID.TID 0000.0001)                 6.741163586252303E+10,      /* J = 16 */
(PID.TID 0000.0001)                 7.080465536516846E+10,      /* J = 17 */
(PID.TID 0000.0001)                 7.402710025128452E+10,      /* J = 18 */
(PID.TID 0000.0001)                 7.707120736888658E+10,      /* J = 19 */
(PID.TID 0000.0001)                 7.992964319729683E+10,      /* J = 20 */
(PID.TID 0000.0001)                 8.259552151423444E+10,      /* J = 21 */
(PID.TID 0000.0001)                 8.506241998533159E+10,      /* J = 22 */
(PID.TID 0000.0001)                 8.732439563609566E+10,      /* J = 23 */
(PID.TID 0000.0001)                 8.937599916905872E+10,      /* J = 24 */
(PID.TID 0000.0001)                 9.121228809161066E+10,      /* J = 25 */
(PID.TID 0000.0001)                 9.282883862289705E+10,      /* J = 26 */
(PID.TID 0000.0001)                 9.422175635109474E+10,      /* J = 27 */
(PID.TID 0000.0001)                 9.538768561539165E+10,      /* J = 28 */
(PID.TID 0000.0001)                 9.632381759006650E+10,      /* J = 29 */
(PID.TID 0000.0001)                 9.702789705119698E+10,      /* J = 30 */
(PID.TID 0000.0001)                 9.749822780969106E+10,      /* J = 31 */
(PID.TID 0000.0001)     2 @  9.773367679755542E+10,             /* J = 32: 33 */
(PID.TID 0000.0001)                 9.749822780969106E+10,      /* J = 34 */
(PID.TID 0000.0001)                 9.702789705119698E+10,      /* J = 35 */
(PID.TID 0000.0001)                 9.632381759006650E+10,      /* J = 36 */
(PID.TID 0000.0001)                 9.538768561539165E+10,      /* J = 37 */
(PID.TID 0000.0001)                 9.422175635109474E+10,      /* J = 38 */
(PID.TID 0000.0001)                 9.282883862289705E+10,      /* J = 39 */
(PID.TID 0000.0001)                 9.121228809161066E+10,      /* J = 40 */
(PID.TID 0000.0001)                 8.937599916905872E+10,      /* J = 41 */
(PID.TID 0000.0001)                 8.732439563609566E+10,      /* J = 42 */
(PID.TID 0000.0001)                 8.506241998533159E+10,      /* J = 43 */
(PID.TID 0000.0001)                 8.259552151423444E+10,      /* J = 44 */
(PID.TID 0000.0001)                 7.992964319729683E+10,      /* J = 45 */
(PID.TID 0000.0001)                 7.707120736888658E+10,      /* J = 46 */
(PID.TID 0000.0001)                 7.402710025128452E+10,      /* J = 47 */
(PID.TID 0000.0001)                 7.080465536516846E+10,      /* J = 48 */
(PID.TID 0000.0001)                 6.741163586252303E+10,      /* J = 49 */
(PID.TID 0000.0001)                 6.385621582452237E+10,      /* J = 50 */
(PID.TID 0000.0001)                 6.014696056945659E+10,      /* J = 51 */
(PID.TID 0000.0001)                 5.629280601812741E+10,      /* J = 52 */
(PID.TID 0000.0001)                 5.230303716643333E+10,      /* J = 53 */
(PID.TID 0000.0001)                 4.818726571700000E+10,      /* J = 54 */
(PID.TID 0000.0001)                 4.395540692374860E+10,      /* J = 55 */
(PID.TID 0000.0001)                 3.961765570517892E+10,      /* J = 56 */
(PID.TID 0000.0001)                 3.518446208391881E+10,      /* J = 57 */
(PID.TID 0000.0001)                 3.066650601170349E+10,      /* J = 58 */
(PID.TID 0000.0001)                 2.607467164043704E+10,      /* J = 59 */
(PID.TID 0000.0001)                 2.142002110131771E+10,      /* J = 60 */
(PID.TID 0000.0001)                 1.671376785519299E+10,      /* J = 61 */
(PID.TID 0000.0001)                 1.196724967835171E+10,      /* J = 62 */
(PID.TID 0000.0001)                 7.191901348828056E+09,      /* J = 63 */
(PID.TID 0000.0001)                 2.399227099019018E+09       /* J = 64 */
(PID.TID 0000.0001)     ;
(PID.TID 0000.0001) rAs =  /* rAs(:,1,:,1) ( units: m^2 ) */
(PID.TID 0000.0001)   128 @  0.000000000000000E+00              /* I =  1:128 */
(PID.TID 0000.0001)     ;
(PID.TID 0000.0001) rAs =  /* rAs(1,:,1,:) ( units: m^2 ) */
(PID.TID 0000.0001)                 0.000000000000000E+00,      /* J =  1 */
(PID.TID 0000.0001)                 4.797008993346594E+09,      /* J =  2 */
(PID.TID 0000.0001)                 9.582461571859739E+09,      /* J =  3 */
(PID.TID 0000.0001)                 1.434482916112175E+10,      /* J =  4 */
(PID.TID 0000.0001)                 1.907263880047594E+10,      /* J =  5 */
(PID.TID 0000.0001)                 2.375450078239423E+10,      /* J =  6 */
(PID.TID 0000.0001)                 2.837913609127881E+10,      /* J =  7 */
(PID.TID 0000.0001)                 3.293540357560110E+10,      /* J =  8 */
(PID.TID 0000.0001)                 3.741232678790870E+10,      /* J =  9 */
(PID.TID 0000.0001)                 4.179912042805190E+10,      /* J = 10 */
(PID.TID 0000.0001)                 4.608521632591324E+10,      /* J = 11 */
(PID.TID 0000.0001)                 5.026028890105701E+10,      /* J = 12 */
(PID.TID 0000.0001)                 5.431428003795675E+10,      /* J = 13 */
(PID.TID 0000.0001)                 5.823742331687641E+10,      /* J = 14 */
(PID.TID 0000.0001)                 6.202026754202965E+10,      /* J = 15 */
(PID.TID 0000.0001)                 6.565369951034003E+10,      /* J = 16 */
(PID.TID 0000.0001)                 6.912896596594559E+10,      /* J = 17 */
(PID.TID 0000.0001)                 7.243769468755632E+10,      /* J = 18 */
(PID.TID 0000.0001)                 7.557191465787256E+10,      /* J = 19 */
(PID.TID 0000.0001)                 7.852407526645966E+10,      /* J = 20 */
(PID.TID 0000.0001)                 8.128706449983365E+10,      /* J = 21 */
(PID.TID 0000.0001)                 8.385422607492096E+10,      /* J = 22 */
(PID.TID 0000.0001)                 8.621937547463148E+10,      /* J = 23 */
(PID.TID 0000.0001)                 8.837681484689812E+10,      /* J = 24 */
(PID.TID 0000.0001)                 9.032134673130376E+10,      /* J = 25 */
(PID.TID 0000.0001)                 9.204828658021815E+10,      /* J = 26 */
(PID.TID 0000.0001)                 9.355347404428317E+10,      /* J = 27 */
(PID.TID 0000.0001)                 9.483328299505896E+10,      /* J = 28 */
(PID.TID 0000.0001)                 9.588463026068500E+10,      /* J = 29 */
(PID.TID 0000.0001)                 9.670498305351135E+10,      /* J = 30 */
(PID.TID 0000.0001)                 9.729236507180571E+10,      /* J = 31 */
(PID.TID 0000.0001)                 9.764536126083739E+10,      /* J = 32 */
(PID.TID 0000.0001)                 9.776312122186816E+10,      /* J = 33 */
(PID.TID 0000.0001)                 9.764536126083739E+10,      /* J = 34 */
(PID.TID 0000.0001)                 9.729236507180571E+10,      /* J = 35 */
(PID.TID 0000.0001)                 9.670498305351135E+10,      /* J = 36 */
(PID.TID 0000.0001)                 9.588463026068500E+10,      /* J = 37 */
(PID.TID 0000.0001)                 9.483328299505896E+10,      /* J = 38 */
(PID.TID 0000.0001)                 9.355347404428317E+10,      /* J = 39 */
(PID.TID 0000.0001)                 9.204828658021815E+10,      /* J = 40 */
(PID.TID 0000.0001)                 9.032134673130376E+10,      /* J = 41 */
(PID.TID 0000.0001)                 8.837681484689812E+10,      /* J = 42 */
(PID.TID 0000.0001)                 8.621937547463148E+10,      /* J = 43 */
(PID.TID 0000.0001)                 8.385422607492096E+10,      /* J = 44 */
(PID.TID 0000.0001)                 8.128706449983365E+10,      /* J = 45 */
(PID.TID 0000.0001)                 7.852407526645966E+10,      /* J = 46 */
(PID.TID 0000.0001)                 7.557191465787256E+10,      /* J = 47 */
(PID.TID 0000.0001)                 7.243769468755632E+10,      /* J = 48 */
(PID.TID 0000.0001)                 6.912896596594559E+10,      /* J = 49 */
(PID.TID 0000.0001)                 6.565369951034003E+10,      /* J = 50 */
(PID.TID 0000.0001)                 6.202026754202965E+10,      /* J = 51 */
(PID.TID 0000.0001)                 5.823742331687641E+10,      /* J = 52 */
(PID.TID 0000.0001)                 5.431428003795675E+10,      /* J = 53 */
(PID.TID 0000.0001)                 5.026028890105701E+10,      /* J = 54 */
(PID.TID 0000.0001)                 4.608521632591324E+10,      /* J = 55 */
(PID.TID 0000.0001)                 4.179912042805190E+10,      /* J = 56 */
(PID.TID 0000.0001)                 3.741232678790870E+10,      /* J = 57 */
(PID.TID 0000.0001)                 3.293540357560110E+10,      /* J = 58 */
(PID.TID 0000.0001)                 2.837913609127881E+10,      /* J = 59 */
(PID.TID 0000.0001)                 2.375450078239423E+10,      /* J = 60 */
(PID.TID 0000.0001)                 1.907263880047594E+10,      /* J = 61 */
(PID.TID 0000.0001)                 1.434482916112175E+10,      /* J = 62 */
(PID.TID 0000.0001)                 9.582461571859739E+09,      /* J = 63 */
(PID.TID 0000.0001)                 4.797008993346594E+09       /* J = 64 */
(PID.TID 0000.0001)     ;
(PID.TID 0000.0001) globalArea = /* Integrated horizontal Area (m^2) */
(PID.TID 0000.0001)                 5.099043637817813E+14
(PID.TID 0000.0001)     ;
(PID.TID 0000.0001) // =======================================================
(PID.TID 0000.0001) // End of Model config. summary
(PID.TID 0000.0001) // =======================================================
(PID.TID 0000.0001) 
(PID.TID 0000.0001) == Packages configuration : Check & print summary ==
(PID.TID 0000.0001) 
(PID.TID 0000.0001) MYPACKAGE_CHECK: #define MYPACKAGE
(PID.TID 0000.0001) myPa_StaV_Cgrid = /* state vector on C-grid */
(PID.TID 0000.0001)                   T
(PID.TID 0000.0001)     ;
(PID.TID 0000.0001) myPa_Tend_Cgrid = /* vector tendency on C-grid */
(PID.TID 0000.0001)                   F
(PID.TID 0000.0001)     ;
(PID.TID 0000.0001) myPa_applyTendT = /* apply MYPA tendency to Temperature Eq.*/
(PID.TID 0000.0001)                   T
(PID.TID 0000.0001)     ;
(PID.TID 0000.0001) myPa_applyTendS = /* apply MYPA tendency to Salinity Eq.*/
(PID.TID 0000.0001)                   T
(PID.TID 0000.0001)     ;
(PID.TID 0000.0001) myPa_applyTendU = /* apply MYPA tendency to U momentum Eq.*/
(PID.TID 0000.0001)                   T
(PID.TID 0000.0001)     ;
(PID.TID 0000.0001) myPa_applyTendV = /* apply MYPA tendency to V momentum Eq.*/
(PID.TID 0000.0001)                   T
(PID.TID 0000.0001)     ;
(PID.TID 0000.0001)  myPa_index1 = /* user defined parameter */
(PID.TID 0000.0001)                       0
(PID.TID 0000.0001)     ;
(PID.TID 0000.0001)  myPa_param1 = /* user defined parameter */
(PID.TID 0000.0001)                 0.000000000000000E+00
(PID.TID 0000.0001)     ;
(PID.TID 0000.0001) myPa_string1 = /* user defined parameter */
(PID.TID 0000.0001)               ''
(PID.TID 0000.0001)     ;
(PID.TID 0000.0001) GAD_CHECK: #define ALLOW_GENERIC_ADVDIFF
(PID.TID 0000.0001) // =======================================================
(PID.TID 0000.0001) // Check Model config. (CONFIG_CHECK):
(PID.TID 0000.0001) // CONFIG_CHECK : Normal End
(PID.TID 0000.0001) // =======================================================
(PID.TID 0000.0001) 
(PID.TID 0000.0001)  MDS_READ_FIELD: opening global file: ini_theta.bin
(PID.TID 0000.0001) Start initial hydrostatic pressure computation
(PID.TID 0000.0001) Iteration   1, RMS-difference =  5.715470021489E+03
(PID.TID 0000.0001) Iteration   2, RMS-difference =  0.000000000000E+00
(PID.TID 0000.0001) Iteration   3, RMS-difference =  0.000000000000E+00
(PID.TID 0000.0001) Iteration   4, RMS-difference =  0.000000000000E+00
(PID.TID 0000.0001) Iteration   5, RMS-difference =  0.000000000000E+00
(PID.TID 0000.0001) Iteration   6, RMS-difference =  0.000000000000E+00
(PID.TID 0000.0001) Iteration   7, RMS-difference =  0.000000000000E+00
(PID.TID 0000.0001) Iteration   8, RMS-difference =  0.000000000000E+00
(PID.TID 0000.0001) Iteration   9, RMS-difference =  0.000000000000E+00
(PID.TID 0000.0001) Iteration  10, RMS-difference =  0.000000000000E+00
(PID.TID 0000.0001) Iteration  11, RMS-difference =  0.000000000000E+00
(PID.TID 0000.0001) Iteration  12, RMS-difference =  0.000000000000E+00
(PID.TID 0000.0001) Iteration  13, RMS-difference =  0.000000000000E+00
(PID.TID 0000.0001) Iteration  14, RMS-difference =  0.000000000000E+00
(PID.TID 0000.0001) Iteration  15, RMS-difference =  0.000000000000E+00
(PID.TID 0000.0001) Initial hydrostatic pressure converged.
(PID.TID 0000.0001) 
(PID.TID 0000.0001)  write diagnostics summary to file ioUnit:      6
Iter.Nb:         0 ; Time(s):  0.0000000000000E+00
------------------------------------------------------------------------
2D/3D diagnostics: Number of lists:     2
------------------------------------------------------------------------
listId=    1 ; file name: surfDiag
 nFlds, nActive,       freq     &     phase        , nLev               
    9  |    9  |     43200.000000         0.000000 |   1
 levels:   1
 diag# | name   |   ipt  |  iMate | kLev|   count |   mate.C|           
    23 |ETAN    |      1 |      0 |   1 |       0 |
    24 |ETANSQ  |      2 |      0 |   1 |       0 |
    25 |DETADT2 |      3 |      0 |   1 |       0 |
   204 |AtPhCnvP|      4 |      0 |   1 |       0 |
   205 |AtPhLscP|      5 |      0 |   1 |       0 |
   211 |AtPhSens|      6 |      0 |   1 |       0 |
   212 |AtPhEvap|      7 |      0 |   1 |       0 |
   213 |AtPhTauX|      8 |      0 |   1 |       0 |
   214 |AtPhTauY|      9 |      0 |   1 |       0 |
------------------------------------------------------------------------
listId=    2 ; file name: dynDiag
 nFlds, nActive,       freq     &     phase        , nLev               
   13  |   13  |     43200.000000         0.000000 |  25
 levels:   1   2   3   4   5   6   7   8   9  10  11  12  13  14  15  16  17  18  19  20  21  22  23  24  25
 diag# | name   |   ipt  |  iMate | kLev|   count |   mate.C|           
    29 |UVEL    |     10 |     35 |  25 |       0 |       0 |
    30 |VVEL    |     35 |     10 |  25 |       0 |       0 |
    31 |WVEL    |     60 |      0 |  25 |       0 |
    26 |THETA   |     85 |      0 |  25 |       0 |
    27 |SALT    |    110 |      0 |  25 |       0 |
   198 |AtPhdTdt|    135 |      0 |  25 |       0 |
   199 |AtPhdQdt|    160 |      0 |  25 |       0 |
   200 |AtPhdUdt|    185 |    210 |  25 |       0 |       0 |
   201 |AtPhdVdt|    210 |    185 |  25 |       0 |       0 |
   215 |AtPhdtTg|    235 |      0 |  25 |       0 |
   216 |AtPhdtQg|    260 |      0 |  25 |       0 |
   202 |AtPhDifT|    285 |      0 |  25 |       0 |
   203 |AtPhDifM|    310 |      0 |  25 |       0 |
------------------------------------------------------------------------
Global & Regional Statistics diagnostics: Number of lists:     2
------------------------------------------------------------------------
listId=   1 ; file name: dynStDiag
 nFlds, nActive,       freq     &     phase        |                    
   14  |   14  |      7200.000000         0.000000 |
 Regions:   0
 diag# | name   |   ipt  |  iMate |    Volume   |   mate-Vol. |         
    23 |ETAN    |      1 |      0 | 0.00000E+00 |
    26 |THETA   |      2 |      0 | 0.00000E+00 |
    27 |SALT    |     27 |      0 | 0.00000E+00 |
    29 |UVEL    |     52 |      0 | 0.00000E+00 |
    30 |VVEL    |     77 |      0 | 0.00000E+00 |
    31 |WVEL    |    102 |      0 | 0.00000E+00 |
   198 |AtPhdTdt|    127 |      0 | 0.00000E+00 |
   199 |AtPhdQdt|    152 |      0 | 0.00000E+00 |
   200 |AtPhdUdt|    177 |      0 | 0.00000E+00 |
   201 |AtPhdVdt|    202 |      0 | 0.00000E+00 |
   215 |AtPhdtTg|    227 |      0 | 0.00000E+00 |
   216 |AtPhdtQg|    252 |      0 | 0.00000E+00 |
   202 |AtPhDifT|    277 |      0 | 0.00000E+00 |
   203 |AtPhDifM|    302 |      0 | 0.00000E+00 |
------------------------------------------------------------------------
listId=   2 ; file name: flxStDiag
 nFlds, nActive,       freq     &     phase        |                    
    6  |    6  |      7200.000000         0.000000 |
 Regions:   0
 diag# | name   |   ipt  |  iMate |    Volume   |   mate-Vol. |         
   211 |AtPhSens|    327 |      0 | 0.00000E+00 |
   212 |AtPhEvap|    328 |      0 | 0.00000E+00 |
   213 |AtPhTauX|    329 |      0 | 0.00000E+00 |
   214 |AtPhTauY|    330 |      0 | 0.00000E+00 |
   204 |AtPhCnvP|    331 |      0 | 0.00000E+00 |
   205 |AtPhLscP|    332 |      0 | 0.00000E+00 |
------------------------------------------------------------------------
(PID.TID 0000.0001)  MDS_READ_FIELD: opening global file: SST_cos0.bin
(PID.TID 0000.0001) // =======================================================
(PID.TID 0000.0001) // Model current state
(PID.TID 0000.0001) // =======================================================
(PID.TID 0000.0001) 
(PID.TID 0000.0001) // =======================================================
(PID.TID 0000.0001) // Begin MONITOR dynamic field statistics
(PID.TID 0000.0001) // =======================================================
(PID.TID 0000.0001) %MON time_tsnumber                =                     0
(PID.TID 0000.0001) %MON time_secondsf                =   0.0000000000000E+00
(PID.TID 0000.0001) %MON dynstat_eta_max              =   0.0000000000000E+00
(PID.TID 0000.0001) %MON dynstat_eta_min              =   0.0000000000000E+00
(PID.TID 0000.0001) %MON dynstat_eta_mean             =   0.0000000000000E+00
(PID.TID 0000.0001) %MON dynstat_eta_sd               =   0.0000000000000E+00
(PID.TID 0000.0001) %MON dynstat_eta_del2             =   0.0000000000000E+00
(PID.TID 0000.0001) %MON dynstat_uvel_max             =   0.0000000000000E+00
(PID.TID 0000.0001) %MON dynstat_uvel_min             =   0.0000000000000E+00
(PID.TID 0000.0001) %MON dynstat_uvel_mean            =   0.0000000000000E+00
(PID.TID 0000.0001) %MON dynstat_uvel_sd              =   0.0000000000000E+00
(PID.TID 0000.0001) %MON dynstat_uvel_del2            =   0.0000000000000E+00
(PID.TID 0000.0001) %MON dynstat_vvel_max             =   0.0000000000000E+00
(PID.TID 0000.0001) %MON dynstat_vvel_min             =   0.0000000000000E+00
(PID.TID 0000.0001) %MON dynstat_vvel_mean            =   0.0000000000000E+00
(PID.TID 0000.0001) %MON dynstat_vvel_sd              =   0.0000000000000E+00
(PID.TID 0000.0001) %MON dynstat_vvel_del2            =   0.0000000000000E+00
(PID.TID 0000.0001) %MON dynstat_wvel_max             =   0.0000000000000E+00
(PID.TID 0000.0001) %MON dynstat_wvel_min             =   0.0000000000000E+00
(PID.TID 0000.0001) %MON dynstat_wvel_mean            =   0.0000000000000E+00
(PID.TID 0000.0001) %MON dynstat_wvel_sd              =   0.0000000000000E+00
(PID.TID 0000.0001) %MON dynstat_wvel_del2            =   0.0000000000000E+00
(PID.TID 0000.0001) %MON dynstat_theta_max            =   6.1194831425624E+02
(PID.TID 0000.0001) %MON dynstat_theta_min            =   2.5469037654219E+02
(PID.TID 0000.0001) %MON dynstat_theta_mean           =   3.2492678336095E+02
(PID.TID 0000.0001) %MON dynstat_theta_sd             =   6.9619121664977E+01
(PID.TID 0000.0001) %MON dynstat_theta_del2           =   1.0124214585916E-03
(PID.TID 0000.0001) %MON dynstat_salt_max             =   1.0000000000000E-02
(PID.TID 0000.0001) %MON dynstat_salt_min             =   0.0000000000000E+00
(PID.TID 0000.0001) %MON dynstat_salt_mean            =   4.0000000000000E-03
(PID.TID 0000.0001) %MON dynstat_salt_sd              =   4.8989794855666E-03
(PID.TID 0000.0001) %MON dynstat_salt_del2            =   0.0000000000000E+00
(PID.TID 0000.0001) %MON advcfl_uvel_max              =   0.0000000000000E+00
(PID.TID 0000.0001) %MON advcfl_vvel_max              =   0.0000000000000E+00
(PID.TID 0000.0001) %MON advcfl_wvel_max              =   0.0000000000000E+00
(PID.TID 0000.0001) %MON advcfl_W_hf_max              =   0.0000000000000E+00
(PID.TID 0000.0001) %MON pe_b_mean                    =   0.0000000000000E+00
(PID.TID 0000.0001) %MON ke_max                       =   0.0000000000000E+00
(PID.TID 0000.0001) %MON ke_mean                      =   0.0000000000000E+00
(PID.TID 0000.0001) %MON ke_vol                       =   5.0990436378171E+19
(PID.TID 0000.0001) %MON vort_r_min                   =   0.0000000000000E+00
(PID.TID 0000.0001) %MON vort_r_max                   =   0.0000000000000E+00
(PID.TID 0000.0001) %MON vort_a_mean                  =   0.0000000000000E+00
(PID.TID 0000.0001) %MON vort_a_sd                    =   8.4185270020443E-05
(PID.TID 0000.0001) %MON vort_p_mean                  =   0.0000000000000E+00
(PID.TID 0000.0001) %MON vort_p_sd                    =   8.4185270020443E-05
(PID.TID 0000.0001) %MON surfExpan_theta_mean         =   0.0000000000000E+00
(PID.TID 0000.0001) %MON surfExpan_salt_mean          =   0.0000000000000E+00
(PID.TID 0000.0001) %MON surfExpan_Heat_mean          =   0.0000000000000E+00
(PID.TID 0000.0001) %MON En_Budget_T2PE_mean          =   0.0000000000000E+00
(PID.TID 0000.0001) // =======================================================
(PID.TID 0000.0001) // End MONITOR dynamic field statistics
(PID.TID 0000.0001) // =======================================================
(PID.TID 0000.0001) SURFACE_FLUX_INIT: opening data.atm_gray
(PID.TID 0000.0001)  OPEN_COPY_DATA_FILE: opening file data.atm_gray
(PID.TID 0000.0001) // =======================================================
(PID.TID 0000.0001) // Parameter file "data.atm_gray"
(PID.TID 0000.0001) // =======================================================
(PID.TID 0000.0001) >
(PID.TID 0000.0001) > &atmosphere_nml
(PID.TID 0000.0001) >    turb = .TRUE.,
(PID.TID 0000.0001) >    ldry_convection = .false.,
(PID.TID 0000.0001) >    lwet_convection = .TRUE.,
(PID.TID 0000.0001) >    do_virtual = .false.,
(PID.TID 0000.0001) >    two_stream = .true.,
(PID.TID 0000.0001) >    mixed_layer_bc = .false.,
(PID.TID 0000.0001) >    roughness_heat = 0.05,
(PID.TID 0000.0001) >    roughness_moist = 0.05,
(PID.TID 0000.0001) >    roughness_mom = 0.05,
(PID.TID 0000.0001) > /
(PID.TID 0000.0001) >
(PID.TID 0000.0001) > &radiation_nml
(PID.TID 0000.0001) ># solar_constant=
(PID.TID 0000.0001) ># del_sol=
(PID.TID 0000.0001) ># ir_tau_eq=
(PID.TID 0000.0001) ># ir_tau_pole=
(PID.TID 0000.0001) ># atm_abs=
(PID.TID 0000.0001) ># sw_diff=
(PID.TID 0000.0001) ># linear_tau=
(PID.TID 0000.0001) ># del_sw=
(PID.TID 0000.0001) ># albedo_value=
(PID.TID 0000.0001) ># window=
(PID.TID 0000.0001) ># wv_exponent=
(PID.TID 0000.0001) ># solar_exponent=
(PID.TID 0000.0001) > /
(PID.TID 0000.0001) >
(PID.TID 0000.0001) > &lscale_cond_nml
(PID.TID 0000.0001) ># hc =
(PID.TID 0000.0001) ># do_evap=
(PID.TID 0000.0001) > /
(PID.TID 0000.0001) >
(PID.TID 0000.0001) > &dargan_bettsmiller_nml
(PID.TID 0000.0001) >#  tau_bm =,
(PID.TID 0000.0001) >#  rhbm =,
(PID.TID 0000.0001) >#  do_shallower=,
(PID.TID 0000.0001) >#  do_changeqref=,
(PID.TID 0000.0001) >#  do_envsat=,
(PID.TID 0000.0001) >#  do_taucape=,
(PID.TID 0000.0001) >#  capetaubm=,
(PID.TID 0000.0001) >#  tau_min =,
(PID.TID 0000.0001) >#  do_virtual=,
(PID.TID 0000.0001) >#  do_bm_shift=,
(PID.TID 0000.0001) > /
(PID.TID 0000.0001) >
(PID.TID 0000.0001) > &surface_flux_nml
(PID.TID 0000.0001) > /
(PID.TID 0000.0001) >
(PID.TID 0000.0001) > &vert_turb_driver_nml
(PID.TID 0000.0001) >#  do_shallow_conv, do_mellor_yamada,
(PID.TID 0000.0001) >#  gust_scheme, constant_gust, use_tau,
(PID.TID 0000.0001) >#  do_molecular_diffusion
(PID.TID 0000.0001) >  do_mellor_yamada=.FALSE.,
(PID.TID 0000.0001) > /
(PID.TID 0000.0001) >
(PID.TID 0000.0001) > &diffusivity_nml
(PID.TID 0000.0001) >#  fixed_depth, depth_0, frac_inner,
(PID.TID 0000.0001) >#  rich_crit_pbl, entr_ratio, parcel_buoy,
(PID.TID 0000.0001) >#  znom, free_atm_diff, free_atm_skyhi_diff,
(PID.TID 0000.0001) >#  pbl_mcm, rich_crit_diff, mix_len, rich_prandtl,
(PID.TID 0000.0001) >#  background_m, background_t, ampns, ampns_max,
(PID.TID 0000.0001) >#  do_virtual_non_mcm
(PID.TID 0000.0001) > /
(PID.TID 0000.0001) >
(PID.TID 0000.0001) > &monin_obukhov_nml
(PID.TID 0000.0001) > /
(PID.TID 0000.0001) >
(PID.TID 0000.0001) > &my25_turb_nml
(PID.TID 0000.0001) > /
(PID.TID 0000.0001) >
(PID.TID 0000.0001) > &shallow_conv_nml
(PID.TID 0000.0001) > /
(PID.TID 0000.0001) >
(PID.TID 0000.0001) > &mixed_layer_nml
(PID.TID 0000.0001) ># evaporation, qflux_amp, depth, qflux_width
(PID.TID 0000.0001) >  depth=5000.,
(PID.TID 0000.0001) > /
(PID.TID 0000.0001) 
(PID.TID 0000.0001) SURFACE_FLUX_INIT: finished reading data.atm_gray
(PID.TID 0000.0001) MONIN_OBUKHOV_INIT: opening data.atm_gray
(PID.TID 0000.0001)  OPEN_COPY_DATA_FILE: opening file data.atm_gray
(PID.TID 0000.0001) // =======================================================
(PID.TID 0000.0001) // Parameter file "data.atm_gray"
(PID.TID 0000.0001) // =======================================================
(PID.TID 0000.0001) >
(PID.TID 0000.0001) > &atmosphere_nml
(PID.TID 0000.0001) >    turb = .TRUE.,
(PID.TID 0000.0001) >    ldry_convection = .false.,
(PID.TID 0000.0001) >    lwet_convection = .TRUE.,
(PID.TID 0000.0001) >    do_virtual = .false.,
(PID.TID 0000.0001) >    two_stream = .true.,
(PID.TID 0000.0001) >    mixed_layer_bc = .false.,
(PID.TID 0000.0001) >    roughness_heat = 0.05,
(PID.TID 0000.0001) >    roughness_moist = 0.05,
(PID.TID 0000.0001) >    roughness_mom = 0.05,
(PID.TID 0000.0001) > /
(PID.TID 0000.0001) >
(PID.TID 0000.0001) > &radiation_nml
(PID.TID 0000.0001) ># solar_constant=
(PID.TID 0000.0001) ># del_sol=
(PID.TID 0000.0001) ># ir_tau_eq=
(PID.TID 0000.0001) ># ir_tau_pole=
(PID.TID 0000.0001) ># atm_abs=
(PID.TID 0000.0001) ># sw_diff=
(PID.TID 0000.0001) ># linear_tau=
(PID.TID 0000.0001) ># del_sw=
(PID.TID 0000.0001) ># albedo_value=
(PID.TID 0000.0001) ># window=
(PID.TID 0000.0001) ># wv_exponent=
(PID.TID 0000.0001) ># solar_exponent=
(PID.TID 0000.0001) > /
(PID.TID 0000.0001) >
(PID.TID 0000.0001) > &lscale_cond_nml
(PID.TID 0000.0001) ># hc =
(PID.TID 0000.0001) ># do_evap=
(PID.TID 0000.0001) > /
(PID.TID 0000.0001) >
(PID.TID 0000.0001) > &dargan_bettsmiller_nml
(PID.TID 0000.0001) >#  tau_bm =,
(PID.TID 0000.0001) >#  rhbm =,
(PID.TID 0000.0001) >#  do_shallower=,
(PID.TID 0000.0001) >#  do_changeqref=,
(PID.TID 0000.0001) >#  do_envsat=,
(PID.TID 0000.0001) >#  do_taucape=,
(PID.TID 0000.0001) >#  capetaubm=,
(PID.TID 0000.0001) >#  tau_min =,
(PID.TID 0000.0001) >#  do_virtual=,
(PID.TID 0000.0001) >#  do_bm_shift=,
(PID.TID 0000.0001) > /
(PID.TID 0000.0001) >
(PID.TID 0000.0001) > &surface_flux_nml
(PID.TID 0000.0001) > /
(PID.TID 0000.0001) >
(PID.TID 0000.0001) > &vert_turb_driver_nml
(PID.TID 0000.0001) >#  do_shallow_conv, do_mellor_yamada,
(PID.TID 0000.0001) >#  gust_scheme, constant_gust, use_tau,
(PID.TID 0000.0001) >#  do_molecular_diffusion
(PID.TID 0000.0001) >  do_mellor_yamada=.FALSE.,
(PID.TID 0000.0001) > /
(PID.TID 0000.0001) >
(PID.TID 0000.0001) > &diffusivity_nml
(PID.TID 0000.0001) >#  fixed_depth, depth_0, frac_inner,
(PID.TID 0000.0001) >#  rich_crit_pbl, entr_ratio, parcel_buoy,
(PID.TID 0000.0001) >#  znom, free_atm_diff, free_atm_skyhi_diff,
(PID.TID 0000.0001) >#  pbl_mcm, rich_crit_diff, mix_len, rich_prandtl,
(PID.TID 0000.0001) >#  background_m, background_t, ampns, ampns_max,
(PID.TID 0000.0001) >#  do_virtual_non_mcm
(PID.TID 0000.0001) > /
(PID.TID 0000.0001) >
(PID.TID 0000.0001) > &monin_obukhov_nml
(PID.TID 0000.0001) > /
(PID.TID 0000.0001) >
(PID.TID 0000.0001) > &my25_turb_nml
(PID.TID 0000.0001) > /
(PID.TID 0000.0001) >
(PID.TID 0000.0001) > &shallow_conv_nml
(PID.TID 0000.0001) > /
(PID.TID 0000.0001) >
(PID.TID 0000.0001) > &mixed_layer_nml
(PID.TID 0000.0001) ># evaporation, qflux_amp, depth, qflux_width
(PID.TID 0000.0001) >  depth=5000.,
(PID.TID 0000.0001) > /
(PID.TID 0000.0001) 
(PID.TID 0000.0001) MONIN_OBUKHOV_INIT: finished reading data.atm_gray
(PID.TID 0000.0001) DIFFUSIVITY_INIT: opening data.atm_gray
(PID.TID 0000.0001)  OPEN_COPY_DATA_FILE: opening file data.atm_gray
(PID.TID 0000.0001) // =======================================================
(PID.TID 0000.0001) // Parameter file "data.atm_gray"
(PID.TID 0000.0001) // =======================================================
(PID.TID 0000.0001) >
(PID.TID 0000.0001) > &atmosphere_nml
(PID.TID 0000.0001) >    turb = .TRUE.,
(PID.TID 0000.0001) >    ldry_convection = .false.,
(PID.TID 0000.0001) >    lwet_convection = .TRUE.,
(PID.TID 0000.0001) >    do_virtual = .false.,
(PID.TID 0000.0001) >    two_stream = .true.,
(PID.TID 0000.0001) >    mixed_layer_bc = .false.,
(PID.TID 0000.0001) >    roughness_heat = 0.05,
(PID.TID 0000.0001) >    roughness_moist = 0.05,
(PID.TID 0000.0001) >    roughness_mom = 0.05,
(PID.TID 0000.0001) > /
(PID.TID 0000.0001) >
(PID.TID 0000.0001) > &radiation_nml
(PID.TID 0000.0001) ># solar_constant=
(PID.TID 0000.0001) ># del_sol=
(PID.TID 0000.0001) ># ir_tau_eq=
(PID.TID 0000.0001) ># ir_tau_pole=
(PID.TID 0000.0001) ># atm_abs=
(PID.TID 0000.0001) ># sw_diff=
(PID.TID 0000.0001) ># linear_tau=
(PID.TID 0000.0001) ># del_sw=
(PID.TID 0000.0001) ># albedo_value=
(PID.TID 0000.0001) ># window=
(PID.TID 0000.0001) ># wv_exponent=
(PID.TID 0000.0001) ># solar_exponent=
(PID.TID 0000.0001) > /
(PID.TID 0000.0001) >
(PID.TID 0000.0001) > &lscale_cond_nml
(PID.TID 0000.0001) ># hc =
(PID.TID 0000.0001) ># do_evap=
(PID.TID 0000.0001) > /
(PID.TID 0000.0001) >
(PID.TID 0000.0001) > &dargan_bettsmiller_nml
(PID.TID 0000.0001) >#  tau_bm =,
(PID.TID 0000.0001) >#  rhbm =,
(PID.TID 0000.0001) >#  do_shallower=,
(PID.TID 0000.0001) >#  do_changeqref=,
(PID.TID 0000.0001) >#  do_envsat=,
(PID.TID 0000.0001) >#  do_taucape=,
(PID.TID 0000.0001) >#  capetaubm=,
(PID.TID 0000.0001) >#  tau_min =,
(PID.TID 0000.0001) >#  do_virtual=,
(PID.TID 0000.0001) >#  do_bm_shift=,
(PID.TID 0000.0001) > /
(PID.TID 0000.0001) >
(PID.TID 0000.0001) > &surface_flux_nml
(PID.TID 0000.0001) > /
(PID.TID 0000.0001) >
(PID.TID 0000.0001) > &vert_turb_driver_nml
(PID.TID 0000.0001) >#  do_shallow_conv, do_mellor_yamada,
(PID.TID 0000.0001) >#  gust_scheme, constant_gust, use_tau,
(PID.TID 0000.0001) >#  do_molecular_diffusion
(PID.TID 0000.0001) >  do_mellor_yamada=.FALSE.,
(PID.TID 0000.0001) > /
(PID.TID 0000.0001) >
(PID.TID 0000.0001) > &diffusivity_nml
(PID.TID 0000.0001) >#  fixed_depth, depth_0, frac_inner,
(PID.TID 0000.0001) >#  rich_crit_pbl, entr_ratio, parcel_buoy,
(PID.TID 0000.0001) >#  znom, free_atm_diff, free_atm_skyhi_diff,
(PID.TID 0000.0001) >#  pbl_mcm, rich_crit_diff, mix_len, rich_prandtl,
(PID.TID 0000.0001) >#  background_m, background_t, ampns, ampns_max,
(PID.TID 0000.0001) >#  do_virtual_non_mcm
(PID.TID 0000.0001) > /
(PID.TID 0000.0001) >
(PID.TID 0000.0001) > &monin_obukhov_nml
(PID.TID 0000.0001) > /
(PID.TID 0000.0001) >
(PID.TID 0000.0001) > &my25_turb_nml
(PID.TID 0000.0001) > /
(PID.TID 0000.0001) >
(PID.TID 0000.0001) > &shallow_conv_nml
(PID.TID 0000.0001) > /
(PID.TID 0000.0001) >
(PID.TID 0000.0001) > &mixed_layer_nml
(PID.TID 0000.0001) ># evaporation, qflux_amp, depth, qflux_width
(PID.TID 0000.0001) >  depth=5000.,
(PID.TID 0000.0001) > /
(PID.TID 0000.0001) 
(PID.TID 0000.0001) DIFFUSIVITY_INIT: finished reading data.atm_gray
(PID.TID 0000.0001) SOLVE_FOR_PRESSURE: putPmEinXvector =    F
 cg2d: Sum(rhs),rhsMax =  -6.82121026329696E-13  3.53382840321293E+01
(PID.TID 0000.0001)      cg2d_init_res =   2.21048177483416E+02
(PID.TID 0000.0001)      cg2d_iters(min,last) =      -1      78
(PID.TID 0000.0001)      cg2d_last_res =   2.75220824332229E-12
(PID.TID 0000.0001) // =======================================================
(PID.TID 0000.0001) // Begin MONITOR dynamic field statistics
(PID.TID 0000.0001) // =======================================================
(PID.TID 0000.0001) %MON time_tsnumber                =                     1
(PID.TID 0000.0001) %MON time_secondsf                =   3.0000000000000E+02
(PID.TID 0000.0001) %MON dynstat_eta_max              =   1.2519296814000E+01
(PID.TID 0000.0001) %MON dynstat_eta_min              =  -1.0295224928248E+01
(PID.TID 0000.0001) %MON dynstat_eta_mean             =  -2.1337334552908E-15
(PID.TID 0000.0001) %MON dynstat_eta_sd               =   5.0132708845773E+00
(PID.TID 0000.0001) %MON dynstat_eta_del2             =   6.0785363265851E-02
(PID.TID 0000.0001) %MON dynstat_uvel_max             =   1.0569655680422E-01
(PID.TID 0000.0001) %MON dynstat_uvel_min             =  -9.8286234648610E-02
(PID.TID 0000.0001) %MON dynstat_uvel_mean            =  -1.4513231564714E-20
(PID.TID 0000.0001) %MON dynstat_uvel_sd              =   9.2636174376997E-03
(PID.TID 0000.0001) %MON dynstat_uvel_del2            =   7.2918163453005E-05
(PID.TID 0000.0001) %MON dynstat_vvel_max             =   1.1100059632328E+00
(PID.TID 0000.0001) %MON dynstat_vvel_min             =  -1.0946577627758E+00
(PID.TID 0000.0001) %MON dynstat_vvel_mean            =   7.1017158034260E-07
(PID.TID 0000.0001) %MON dynstat_vvel_sd              =   4.9000383660358E-01
(PID.TID 0000.0001) %MON dynstat_vvel_del2            =   7.7576556895422E-05
(PID.TID 0000.0001) %MON dynstat_wvel_max             =   2.0917194613935E-02
(PID.TID 0000.0001) %MON dynstat_wvel_min             =  -1.2432645887986E-02
(PID.TID 0000.0001) %MON dynstat_wvel_mean            =  -5.3631505666457E-18
(PID.TID 0000.0001) %MON dynstat_wvel_sd              =   4.0863857719564E-03
(PID.TID 0000.0001) %MON dynstat_wvel_del2            =   2.1149283537140E-05
(PID.TID 0000.0001) %MON dynstat_theta_max            =   6.1193407875696E+02
(PID.TID 0000.0001) %MON dynstat_theta_min            =   2.5576140426355E+02
(PID.TID 0000.0001) %MON dynstat_theta_mean           =   3.2788155175000E+02
(PID.TID 0000.0001) %MON dynstat_theta_sd             =   6.7855266286283E+01
(PID.TID 0000.0001) %MON dynstat_theta_del2           =   8.8547213713488E-04
(PID.TID 0000.0001) %MON dynstat_salt_max             =   1.0205120038760E-02
(PID.TID 0000.0001) %MON dynstat_salt_min             =  -3.3562333858448E-03
(PID.TID 0000.0001) %MON dynstat_salt_mean            =   2.9090565638789E-03
(PID.TID 0000.0001) %MON dynstat_salt_sd              =   4.1415318171184E-03
(PID.TID 0000.0001) %MON dynstat_salt_del2            =   5.6202034082483E-07
(PID.TID 0000.0001) %MON advcfl_uvel_max              =   4.9853687605672E-04
(PID.TID 0000.0001) %MON advcfl_vvel_max              =   1.0649696607446E-03
(PID.TID 0000.0001) %MON advcfl_wvel_max              =   1.5687895960451E-03
(PID.TID 0000.0001) %MON advcfl_W_hf_max              =   1.5687895960451E-03
(PID.TID 0000.0001) %MON pe_b_mean                    =   1.0648075510117E-04
(PID.TID 0000.0001) %MON ke_max                       =   5.6803044979493E-01
(PID.TID 0000.0001) %MON ke_mean                      =   1.2007068445618E-01
(PID.TID 0000.0001) %MON ke_vol                       =   5.0990436378171E+19
(PID.TID 0000.0001) %MON vort_r_min                   =  -8.5653461472448E-08
(PID.TID 0000.0001) %MON vort_r_max                   =   1.0430296694184E-07
(PID.TID 0000.0001) %MON vort_a_mean                  =   1.7165250490199E-19
(PID.TID 0000.0001) %MON vort_a_sd                    =   8.4185270049177E-05
(PID.TID 0000.0001) %MON vort_p_mean                  =   1.7165250490199E-19
(PID.TID 0000.0001) %MON vort_p_sd                    =   8.4185270049177E-05
(PID.TID 0000.0001) %MON surfExpan_theta_mean         =  -1.7944527106142E-01
(PID.TID 0000.0001) %MON surfExpan_salt_mean          =  -1.8960686893882E-05
(PID.TID 0000.0001) %MON surfExpan_Heat_mean          =  -1.5384924772804E+01
(PID.TID 0000.0001) %MON En_Budget_T2PE_mean          =   2.0509881095240E+00
(PID.TID 0000.0001) // =======================================================
(PID.TID 0000.0001) // End MONITOR dynamic field statistics
(PID.TID 0000.0001) // =======================================================
 cg2d: Sum(rhs),rhsMax =  -7.73070496506989E-12  8.44977430223821E+00
(PID.TID 0000.0001)      cg2d_init_res =   1.43805001881255E+02
(PID.TID 0000.0001)      cg2d_iters(min,last) =      -1      89
(PID.TID 0000.0001)      cg2d_last_res =   2.58799365426742E-12
(PID.TID 0000.0001) // =======================================================
(PID.TID 0000.0001) // Begin MONITOR dynamic field statistics
(PID.TID 0000.0001) // =======================================================
(PID.TID 0000.0001) %MON time_tsnumber                =                     2
(PID.TID 0000.0001) %MON time_secondsf                =   6.0000000000000E+02
(PID.TID 0000.0001) %MON dynstat_eta_max              =   3.0866869238750E+01
(PID.TID 0000.0001) %MON dynstat_eta_min              =  -2.7757307050218E+01
(PID.TID 0000.0001) %MON dynstat_eta_mean             =  -2.0082197226266E-15
(PID.TID 0000.0001) %MON dynstat_eta_sd               =   1.3648913360295E+01
(PID.TID 0000.0001) %MON dynstat_eta_del2             =   1.2047062241372E-01
(PID.TID 0000.0001) %MON dynstat_uvel_max             =   2.2700904066996E-01
(PID.TID 0000.0001) %MON dynstat_uvel_min             =  -1.4442507820460E-01
(PID.TID 0000.0001) %MON dynstat_uvel_mean            =   1.5102716370162E-02
(PID.TID 0000.0001) %MON dynstat_uvel_sd              =   2.1272412319074E-02
(PID.TID 0000.0001) %MON dynstat_uvel_del2            =   1.0973392979126E-04
(PID.TID 0000.0001) %MON dynstat_vvel_max             =   2.0088720080907E+00
(PID.TID 0000.0001) %MON dynstat_vvel_min             =  -1.9633905034483E+00
(PID.TID 0000.0001) %MON dynstat_vvel_mean            =   2.6686012613633E-07
(PID.TID 0000.0001) %MON dynstat_vvel_sd              =   8.7732521817470E-01
(PID.TID 0000.0001) %MON dynstat_vvel_del2            =   1.3211124586359E-04
(PID.TID 0000.0001) %MON dynstat_wvel_max             =   3.3484996431789E-02
(PID.TID 0000.0001) %MON dynstat_wvel_min             =  -2.4178995582934E-02
(PID.TID 0000.0001) %MON dynstat_wvel_mean            =   9.9258308994638E-18
(PID.TID 0000.0001) %MON dynstat_wvel_sd              =   7.3121524592363E-03
(PID.TID 0000.0001) %MON dynstat_wvel_del2            =   2.9985938464984E-05
(PID.TID 0000.0001) %MON dynstat_theta_max            =   6.1191367735006E+02
(PID.TID 0000.0001) %MON dynstat_theta_min            =   2.5654462532580E+02
(PID.TID 0000.0001) %MON dynstat_theta_mean           =   3.2616648281917E+02
(PID.TID 0000.0001) %MON dynstat_theta_sd             =   6.8789369370855E+01
(PID.TID 0000.0001) %MON dynstat_theta_del2           =   2.1796547865968E-03
(PID.TID 0000.0001) %MON dynstat_salt_max             =   1.0204568897174E-02
(PID.TID 0000.0001) %MON dynstat_salt_min             =  -3.4258317949159E-03
(PID.TID 0000.0001) %MON dynstat_salt_mean            =   2.8955535900902E-03
(PID.TID 0000.0001) %MON dynstat_salt_sd              =   4.1412361086609E-03
(PID.TID 0000.0001) %MON dynstat_salt_del2            =   3.1813602524021E-07
(PID.TID 0000.0001) %MON advcfl_uvel_max              =   6.0536794548935E-04
(PID.TID 0000.0001) %MON advcfl_vvel_max              =   1.9273659888322E-03
(PID.TID 0000.0001) %MON advcfl_wvel_max              =   2.5113747323842E-03
(PID.TID 0000.0001) %MON advcfl_W_hf_max              =   2.5111502878347E-03
(PID.TID 0000.0001) %MON pe_b_mean                    =   7.8926879537439E-04
(PID.TID 0000.0001) %MON ke_max                       =   1.8430154412543E+00
(PID.TID 0000.0001) %MON ke_mean                      =   3.8511280802104E-01
(PID.TID 0000.0001) %MON ke_vol                       =   5.0990436378179E+19
(PID.TID 0000.0001) %MON vort_r_min                   =  -1.0317504708517E-07
(PID.TID 0000.0001) %MON vort_r_max                   =   1.3186862812200E-07
(PID.TID 0000.0001) %MON vort_a_mean                  =   3.6030449301802E-15
(PID.TID 0000.0001) %MON vort_a_sd                    =   8.4188114086795E-05
(PID.TID 0000.0001) %MON vort_p_mean                  =   3.6030401154112E-15
(PID.TID 0000.0001) %MON vort_p_sd                    =   8.4186336261235E-05
(PID.TID 0000.0001) %MON surfExpan_theta_mean         =  -3.6696225899149E-01
(PID.TID 0000.0001) %MON surfExpan_salt_mean          =  -3.3265110945130E-05
(PID.TID 0000.0001) %MON surfExpan_Heat_mean          =  -3.1946710049755E+01
(PID.TID 0000.0001) %MON En_Budget_T2PE_mean          =   4.1536165462651E+00
(PID.TID 0000.0001) // =======================================================
(PID.TID 0000.0001) // End MONITOR dynamic field statistics
(PID.TID 0000.0001) // =======================================================
 cg2d: Sum(rhs),rhsMax =   8.18545231595635E-12  1.49576411088136E+01
(PID.TID 0000.0001)      cg2d_init_res =   2.26090059087210E+02
(PID.TID 0000.0001)      cg2d_iters(min,last) =      -1      96
(PID.TID 0000.0001)      cg2d_last_res =   2.34430312077170E-12
(PID.TID 0000.0001) // =======================================================
(PID.TID 0000.0001) // Begin MONITOR dynamic field statistics
(PID.TID 0000.0001) // =======================================================
(PID.TID 0000.0001) %MON time_tsnumber                =                     3
(PID.TID 0000.0001) %MON time_secondsf                =   9.0000000000000E+02
(PID.TID 0000.0001) %MON dynstat_eta_max              =   1.1041074035708E+02
(PID.TID 0000.0001) %MON dynstat_eta_min              =  -5.0491239828510E+01
(PID.TID 0000.0001) %MON dynstat_eta_mean             =  -1.7069867642326E-14
(PID.TID 0000.0001) %MON dynstat_eta_sd               =   2.6975301045228E+01
(PID.TID 0000.0001) %MON dynstat_eta_del2             =   2.8827685221267E-01
(PID.TID 0000.0001) %MON dynstat_uvel_max             =   6.8375633215793E-01
(PID.TID 0000.0001) %MON dynstat_uvel_min             =  -5.5122795920873E-01
(PID.TID 0000.0001) %MON dynstat_uvel_mean            =   3.5823524856204E-02
(PID.TID 0000.0001) %MON dynstat_uvel_sd              =   4.8740582429497E-02
(PID.TID 0000.0001) %MON dynstat_uvel_del2            =   2.5368034558791E-04
(PID.TID 0000.0001) %MON dynstat_vvel_max             =   2.9851737401996E+00
(PID.TID 0000.0001) %MON dynstat_vvel_min             =  -2.9258738012932E+00
(PID.TID 0000.0001) %MON dynstat_vvel_mean            =  -7.3274103575598E-05
(PID.TID 0000.0001) %MON dynstat_vvel_sd              =   1.3202758677649E+00
(PID.TID 0000.0001) %MON dynstat_vvel_del2            =   3.2661724475578E-04
(PID.TID 0000.0001) %MON dynstat_wvel_max             =   1.7842810311365E-01
(PID.TID 0000.0001) %MON dynstat_wvel_min             =  -1.7765717787990E-01
(PID.TID 0000.0001) %MON dynstat_wvel_mean            =  -2.4334295108363E-17
(PID.TID 0000.0001) %MON dynstat_wvel_sd              =   1.2936771863950E-02
(PID.TID 0000.0001) %MON dynstat_wvel_del2            =   7.8310854458373E-05
(PID.TID 0000.0001) %MON dynstat_theta_max            =   6.1190905540290E+02
(PID.TID 0000.0001) %MON dynstat_theta_min            =   2.5653343206129E+02
(PID.TID 0000.0001) %MON dynstat_theta_mean           =   3.2652526220617E+02
(PID.TID 0000.0001) %MON dynstat_theta_sd             =   6.8628248168914E+01
(PID.TID 0000.0001) %MON dynstat_theta_del2           =   1.4898826266379E-03
(PID.TID 0000.0001) %MON dynstat_salt_max             =   1.0204052671700E-02
(PID.TID 0000.0001) %MON dynstat_salt_min             =  -3.4604322956806E-03
(PID.TID 0000.0001) %MON dynstat_salt_mean            =   2.8068283021891E-03
(PID.TID 0000.0001) %MON dynstat_salt_sd              =   4.0803061096195E-03
(PID.TID 0000.0001) %MON dynstat_salt_del2            =   3.3724006143800E-07
(PID.TID 0000.0001) %MON advcfl_uvel_max              =   2.9941148083414E-03
(PID.TID 0000.0001) %MON advcfl_vvel_max              =   2.8640562039011E-03
(PID.TID 0000.0001) %MON advcfl_wvel_max              =   1.3382107733524E-02
(PID.TID 0000.0001) %MON advcfl_W_hf_max              =   1.3378897350285E-02
(PID.TID 0000.0001) %MON pe_b_mean                    =   3.0829137809542E-03
(PID.TID 0000.0001) %MON ke_max                       =   4.1186789284090E+00
(PID.TID 0000.0001) %MON ke_mean                      =   8.7321871636122E-01
(PID.TID 0000.0001) %MON ke_vol                       =   5.0990436378179E+19
(PID.TID 0000.0001) %MON vort_r_min                   =  -2.6525329810768E-07
(PID.TID 0000.0001) %MON vort_r_max                   =   2.5773871635337E-07
(PID.TID 0000.0001) %MON vort_a_mean                  =   4.7578322525510E-15
(PID.TID 0000.0001) %MON vort_a_sd                    =   8.4192039681771E-05
(PID.TID 0000.0001) %MON vort_p_mean                  =   4.7578374930600E-15
(PID.TID 0000.0001) %MON vort_p_sd                    =   8.4187141583812E-05
(PID.TID 0000.0001) %MON surfExpan_theta_mean         =  -5.4628597195924E-01
(PID.TID 0000.0001) %MON surfExpan_salt_mean          =  -5.1852076118414E-05
(PID.TID 0000.0001) %MON surfExpan_Heat_mean          =  -4.7487138839219E+01
(PID.TID 0000.0001) %MON En_Budget_T2PE_mean          =   6.2288034887767E+00
(PID.TID 0000.0001) // =======================================================
(PID.TID 0000.0001) // End MONITOR dynamic field statistics
(PID.TID 0000.0001) // =======================================================
 cg2d: Sum(rhs),rhsMax =  -6.18456397205591E-11  2.21706964129880E+01
(PID.TID 0000.0001)      cg2d_init_res =   2.83781711239990E+02
(PID.TID 0000.0001)      cg2d_iters(min,last) =      -1      95
(PID.TID 0000.0001)      cg2d_last_res =   3.52920493783168E-12
(PID.TID 0000.0001) // =======================================================
(PID.TID 0000.0001) // Begin MONITOR dynamic field statistics
(PID.TID 0000.0001) // =======================================================
(PID.TID 0000.0001) %MON time_tsnumber                =                     4
(PID.TID 0000.0001) %MON time_secondsf                =   1.2000000000000E+03
(PID.TID 0000.0001) %MON dynstat_eta_max              =   1.9151312055034E+02
(PID.TID 0000.0001) %MON dynstat_eta_min              =  -9.2044130067929E+01
(PID.TID 0000.0001) %MON dynstat_eta_mean             =  -2.8115076116773E-14
(PID.TID 0000.0001) %MON dynstat_eta_sd               =   4.4587128615202E+01
(PID.TID 0000.0001) %MON dynstat_eta_del2             =   4.7663101859547E-01
(PID.TID 0000.0001) %MON dynstat_uvel_max             =   8.9054629928697E-01
(PID.TID 0000.0001) %MON dynstat_uvel_min             =  -7.0668661078881E-01
(PID.TID 0000.0001) %MON dynstat_uvel_mean            =   6.5420443499974E-02
(PID.TID 0000.0001) %MON dynstat_uvel_sd              =   7.8543353912932E-02
(PID.TID 0000.0001) %MON dynstat_uvel_del2            =   3.2248037756578E-04
(PID.TID 0000.0001) %MON dynstat_vvel_max             =   3.9195411220871E+00
(PID.TID 0000.0001) %MON dynstat_vvel_min             =  -3.8844666593433E+00
(PID.TID 0000.0001) %MON dynstat_vvel_mean            =  -1.1479781799558E-04
(PID.TID 0000.0001) %MON dynstat_vvel_sd              =   1.7555528110804E+00
(PID.TID 0000.0001) %MON dynstat_vvel_del2            =   4.4590043417983E-04
(PID.TID 0000.0001) %MON dynstat_wvel_max             =   2.5007813951198E-01
(PID.TID 0000.0001) %MON dynstat_wvel_min             =  -2.6667231990437E-01
(PID.TID 0000.0001) %MON dynstat_wvel_mean            =  -3.5220690288420E-18
(PID.TID 0000.0001) %MON dynstat_wvel_sd              =   1.7715696591641E-02
(PID.TID 0000.0001) %MON dynstat_wvel_del2            =   1.0937078097440E-04
(PID.TID 0000.0001) %MON dynstat_theta_max            =   6.1193234858879E+02
(PID.TID 0000.0001) %MON dynstat_theta_min            =   2.5654076329028E+02
(PID.TID 0000.0001) %MON dynstat_theta_mean           =   3.2637476378100E+02
(PID.TID 0000.0001) %MON dynstat_theta_sd             =   6.8695838335810E+01
(PID.TID 0000.0001) %MON dynstat_theta_del2           =   1.4961104558174E-03
(PID.TID 0000.0001) %MON dynstat_salt_max             =   1.0203527179956E-02
(PID.TID 0000.0001) %MON dynstat_salt_min             =  -3.4737974992737E-03
(PID.TID 0000.0001) %MON dynstat_salt_mean            =   2.8067268022516E-03
(PID.TID 0000.0001) %MON dynstat_salt_sd              =   4.0797035844921E-03
(PID.TID 0000.0001) %MON dynstat_salt_del2            =   3.3366247906583E-07
(PID.TID 0000.0001) %MON advcfl_uvel_max              =   3.8996316915906E-03
(PID.TID 0000.0001) %MON advcfl_vvel_max              =   3.7605134722941E-03
(PID.TID 0000.0001) %MON advcfl_wvel_max              =   2.0000423992828E-02
(PID.TID 0000.0001) %MON advcfl_W_hf_max              =   2.0009978410940E-02
(PID.TID 0000.0001) %MON pe_b_mean                    =   8.4226312773492E-03
(PID.TID 0000.0001) %MON ke_max                       =   7.1521605473298E+00
(PID.TID 0000.0001) %MON ke_mean                      =   1.5458979335301E+00
(PID.TID 0000.0001) %MON ke_vol                       =   5.0990436378179E+19
(PID.TID 0000.0001) %MON vort_r_min                   =  -5.5318041562853E-07
(PID.TID 0000.0001) %MON vort_r_max                   =   5.1023380413519E-07
(PID.TID 0000.0001) %MON vort_a_mean                  =  -2.2975545309552E-13
(PID.TID 0000.0001) %MON vort_a_sd                    =   8.4197684532035E-05
(PID.TID 0000.0001) %MON vort_p_mean                  =  -2.2975548116301E-13
(PID.TID 0000.0001) %MON vort_p_sd                    =   8.4188088714634E-05
(PID.TID 0000.0001) %MON surfExpan_theta_mean         =  -7.2965234320056E-01
(PID.TID 0000.0001) %MON surfExpan_salt_mean          =  -6.9036209810745E-05
(PID.TID 0000.0001) %MON surfExpan_Heat_mean          =  -6.3493347711860E+01
(PID.TID 0000.0001) %MON En_Budget_T2PE_mean          =   8.3068622064517E+00
(PID.TID 0000.0001) // =======================================================
(PID.TID 0000.0001) // End MONITOR dynamic field statistics
(PID.TID 0000.0001) // =======================================================
 cg2d: Sum(rhs),rhsMax =  -5.63886715099216E-11  3.00182488102678E+01
(PID.TID 0000.0001)      cg2d_init_res =   3.45711677967254E+02
(PID.TID 0000.0001)      cg2d_iters(min,last) =      -1      95
(PID.TID 0000.0001)      cg2d_last_res =   3.52199703917810E-12
(PID.TID 0000.0001) // =======================================================
(PID.TID 0000.0001) // Begin MONITOR dynamic field statistics
(PID.TID 0000.0001) // =======================================================
(PID.TID 0000.0001) %MON time_tsnumber                =                     5
(PID.TID 0000.0001) %MON time_secondsf                =   1.5000000000000E+03
(PID.TID 0000.0001) %MON dynstat_eta_max              =   2.5318376502632E+02
(PID.TID 0000.0001) %MON dynstat_eta_min              =  -1.0629930347268E+02
(PID.TID 0000.0001) %MON dynstat_eta_mean             =   1.6065757781013E-14
(PID.TID 0000.0001) %MON dynstat_eta_sd               =   6.6108993250144E+01
(PID.TID 0000.0001) %MON dynstat_eta_del2             =   6.0543771854375E-01
(PID.TID 0000.0001) %MON dynstat_uvel_max             =   1.0934403749410E+00
(PID.TID 0000.0001) %MON dynstat_uvel_min             =  -8.3224640347777E-01
(PID.TID 0000.0001) %MON dynstat_uvel_mean            =   1.0324697735641E-01
(PID.TID 0000.0001) %MON dynstat_uvel_sd              =   1.1696425806373E-01
(PID.TID 0000.0001) %MON dynstat_uvel_del2            =   3.9306308003793E-04
(PID.TID 0000.0001) %MON dynstat_vvel_max             =   4.8199270105724E+00
(PID.TID 0000.0001) %MON dynstat_vvel_min             =  -4.7977307341568E+00
(PID.TID 0000.0001) %MON dynstat_vvel_mean            =  -1.5928337698713E-04
(PID.TID 0000.0001) %MON dynstat_vvel_sd              =   2.1897074938128E+00
(PID.TID 0000.0001) %MON dynstat_vvel_del2            =   5.5384396362539E-04
(PID.TID 0000.0001) %MON dynstat_wvel_max             =   3.2835533713375E-01
(PID.TID 0000.0001) %MON dynstat_wvel_min             =  -3.4710737899692E-01
(PID.TID 0000.0001) %MON dynstat_wvel_mean            =  -3.0097680791922E-17
(PID.TID 0000.0001) %MON dynstat_wvel_sd              =   2.2222589737293E-02
(PID.TID 0000.0001) %MON dynstat_wvel_del2            =   1.3711810428201E-04
(PID.TID 0000.0001) %MON dynstat_theta_max            =   6.1195416162637E+02
(PID.TID 0000.0001) %MON dynstat_theta_min            =   2.5654729953674E+02
(PID.TID 0000.0001) %MON dynstat_theta_mean           =   3.2638049835432E+02
(PID.TID 0000.0001) %MON dynstat_theta_sd             =   6.8689257573703E+01
(PID.TID 0000.0001) %MON dynstat_theta_del2           =   1.5306661289122E-03
(PID.TID 0000.0001) %MON dynstat_salt_max             =   1.0203006921421E-02
(PID.TID 0000.0001) %MON dynstat_salt_min             =  -3.4778307629659E-03
(PID.TID 0000.0001) %MON dynstat_salt_mean            =   2.8048259280809E-03
(PID.TID 0000.0001) %MON dynstat_salt_sd              =   4.0773680430548E-03
(PID.TID 0000.0001) %MON dynstat_salt_del2            =   3.3502368367039E-07
(PID.TID 0000.0001) %MON advcfl_uvel_max              =   4.7880887747203E-03
(PID.TID 0000.0001) %MON advcfl_vvel_max              =   4.6243679793516E-03
(PID.TID 0000.0001) %MON advcfl_wvel_max              =   2.6033053424769E-02
(PID.TID 0000.0001) %MON advcfl_W_hf_max              =   2.6055988348343E-02
(PID.TID 0000.0001) %MON pe_b_mean                    =   1.8516114846930E-02
(PID.TID 0000.0001) %MON ke_max                       =   1.1014091161880E+01
(PID.TID 0000.0001) %MON ke_mean                      =   2.4090984015034E+00
(PID.TID 0000.0001) %MON ke_vol                       =   5.0990436378179E+19
(PID.TID 0000.0001) %MON vort_r_min                   =  -8.5020236085070E-07
(PID.TID 0000.0001) %MON vort_r_max                   =   7.8308492825776E-07
(PID.TID 0000.0001) %MON vort_a_mean                  =  -4.8895337649393E-13
(PID.TID 0000.0001) %MON vort_a_sd                    =   8.4204868931596E-05
(PID.TID 0000.0001) %MON vort_p_mean                  =  -4.8895349500718E-13
(PID.TID 0000.0001) %MON vort_p_sd                    =   8.4189023469756E-05
(PID.TID 0000.0001) %MON surfExpan_theta_mean         =  -9.0791482662528E-01
(PID.TID 0000.0001) %MON surfExpan_salt_mean          =  -8.6390220117436E-05
(PID.TID 0000.0001) %MON surfExpan_Heat_mean          =  -7.9043047289389E+01
(PID.TID 0000.0001) %MON En_Budget_T2PE_mean          =   1.0332985446017E+01
(PID.TID 0000.0001) // =======================================================
(PID.TID 0000.0001) // End MONITOR dynamic field statistics
(PID.TID 0000.0001) // =======================================================
 cg2d: Sum(rhs),rhsMax =   8.73114913702011E-11  3.86266027742466E+01
(PID.TID 0000.0001)      cg2d_init_res =   4.09574200763568E+02
(PID.TID 0000.0001)      cg2d_iters(min,last) =      -1      95
(PID.TID 0000.0001)      cg2d_last_res =   4.05714722762391E-12
(PID.TID 0000.0001) // =======================================================
(PID.TID 0000.0001) // Begin MONITOR dynamic field statistics
(PID.TID 0000.0001) // =======================================================
(PID.TID 0000.0001) %MON time_tsnumber                =                     6
(PID.TID 0000.0001) %MON time_secondsf                =   1.8000000000000E+03
(PID.TID 0000.0001) %MON dynstat_eta_max              =   3.0052283080958E+02
(PID.TID 0000.0001) %MON dynstat_eta_min              =  -1.3931387829604E+02
(PID.TID 0000.0001) %MON dynstat_eta_mean             =  -7.6312349459812E-14
(PID.TID 0000.0001) %MON dynstat_eta_sd               =   9.1513804385815E+01
(PID.TID 0000.0001) %MON dynstat_eta_del2             =   6.6598644775419E-01
(PID.TID 0000.0001) %MON dynstat_uvel_max             =   1.3086086805140E+00
(PID.TID 0000.0001) %MON dynstat_uvel_min             =  -9.7272577434700E-01
(PID.TID 0000.0001) %MON dynstat_uvel_mean            =   1.4918077475423E-01
(PID.TID 0000.0001) %MON dynstat_uvel_sd              =   1.6443487692720E-01
(PID.TID 0000.0001) %MON dynstat_uvel_del2            =   4.7657700827983E-04
(PID.TID 0000.0001) %MON dynstat_vvel_max             =   5.7194810041587E+00
(PID.TID 0000.0001) %MON dynstat_vvel_min             =  -5.7220206211903E+00
(PID.TID 0000.0001) %MON dynstat_vvel_mean            =  -2.0309257819822E-04
(PID.TID 0000.0001) %MON dynstat_vvel_sd              =   2.6192095884253E+00
(PID.TID 0000.0001) %MON dynstat_vvel_del2            =   6.5936498233943E-04
(PID.TID 0000.0001) %MON dynstat_wvel_max             =   4.0357323622139E-01
(PID.TID 0000.0001) %MON dynstat_wvel_min             =  -4.2221250071603E-01
(PID.TID 0000.0001) %MON dynstat_wvel_mean            =  -8.5810409066332E-17
(PID.TID 0000.0001) %MON dynstat_wvel_sd              =   2.6612798853612E-02
(PID.TID 0000.0001) %MON dynstat_wvel_del2            =   1.6294006430120E-04
(PID.TID 0000.0001) %MON dynstat_theta_max            =   6.1198479313305E+02
(PID.TID 0000.0001) %MON dynstat_theta_min            =   2.5655472325683E+02
(PID.TID 0000.0001) %MON dynstat_theta_mean           =   3.2638518143330E+02
(PID.TID 0000.0001) %MON dynstat_theta_sd             =   6.8684215087330E+01
(PID.TID 0000.0001) %MON dynstat_theta_del2           =   1.6031541846150E-03
(PID.TID 0000.0001) %MON dynstat_salt_max             =   1.0202501568764E-02
(PID.TID 0000.0001) %MON dynstat_salt_min             =  -3.4779722928848E-03
(PID.TID 0000.0001) %MON dynstat_salt_mean            =   2.8022010161233E-03
(PID.TID 0000.0001) %MON dynstat_salt_sd              =   4.0745831224905E-03
(PID.TID 0000.0001) %MON dynstat_salt_del2            =   3.3995190924134E-07
(PID.TID 0000.0001) %MON advcfl_uvel_max              =   5.7302937382469E-03
(PID.TID 0000.0001) %MON advcfl_vvel_max              =   5.4898609210847E-03
(PID.TID 0000.0001) %MON advcfl_wvel_max              =   3.1665937553702E-02
(PID.TID 0000.0001) %MON advcfl_W_hf_max              =   3.1697387250396E-02
(PID.TID 0000.0001) %MON pe_b_mean                    =   3.5481502242598E-02
(PID.TID 0000.0001) %MON ke_max                       =   1.5679162778007E+01
(PID.TID 0000.0001) %MON ke_mean                      =   3.4540874919655E+00
(PID.TID 0000.0001) %MON ke_vol                       =   5.0990436378179E+19
(PID.TID 0000.0001) %MON vort_r_min                   =  -1.1743024545838E-06
(PID.TID 0000.0001) %MON vort_r_max                   =   1.0752323846576E-06
(PID.TID 0000.0001) %MON vort_a_mean                  =  -7.8106121945523E-13
(PID.TID 0000.0001) %MON vort_a_sd                    =   8.4213603378127E-05
(PID.TID 0000.0001) %MON vort_p_mean                  =  -7.8106150329553E-13
(PID.TID 0000.0001) %MON vort_p_sd                    =   8.4189960699586E-05
(PID.TID 0000.0001) %MON surfExpan_theta_mean         =  -1.0834593587157E+00
(PID.TID 0000.0001) %MON surfExpan_salt_mean          =  -1.0368950017551E-04
(PID.TID 0000.0001) %MON surfExpan_Heat_mean          =  -9.4364462178282E+01
(PID.TID 0000.0001) %MON En_Budget_T2PE_mean          =   1.2340111447166E+01
(PID.TID 0000.0001) // =======================================================
(PID.TID 0000.0001) // End MONITOR dynamic field statistics
(PID.TID 0000.0001) // =======================================================
 cg2d: Sum(rhs),rhsMax =  -1.81898940354586E-11  4.82614382565331E+01
(PID.TID 0000.0001)      cg2d_init_res =   4.73607476902427E+02
(PID.TID 0000.0001)      cg2d_iters(min,last) =      -1      96
(PID.TID 0000.0001)      cg2d_last_res =   4.12511370460167E-12
(PID.TID 0000.0001) // =======================================================
(PID.TID 0000.0001) // Begin MONITOR dynamic field statistics
(PID.TID 0000.0001) // =======================================================
(PID.TID 0000.0001) %MON time_tsnumber                =                     7
(PID.TID 0000.0001) %MON time_secondsf                =   2.1000000000000E+03
(PID.TID 0000.0001) %MON dynstat_eta_max              =   3.5817467485241E+02
(PID.TID 0000.0001) %MON dynstat_eta_min              =  -1.7650163651820E+02
(PID.TID 0000.0001) %MON dynstat_eta_mean             =  -5.6230152233546E-14
(PID.TID 0000.0001) %MON dynstat_eta_sd               =   1.2087076611495E+02
(PID.TID 0000.0001) %MON dynstat_eta_del2             =   6.7506516360389E-01
(PID.TID 0000.0001) %MON dynstat_uvel_max             =   1.5729657727678E+00
(PID.TID 0000.0001) %MON dynstat_uvel_min             =  -1.2211181595316E+00
(PID.TID 0000.0001) %MON dynstat_uvel_mean            =   2.0312010754077E-01
(PID.TID 0000.0001) %MON dynstat_uvel_sd              =   2.2093724684528E-01
(PID.TID 0000.0001) %MON dynstat_uvel_del2            =   5.7567306393101E-04
(PID.TID 0000.0001) %MON dynstat_vvel_max             =   6.6900814693150E+00
(PID.TID 0000.0001) %MON dynstat_vvel_min             =  -6.6722623331792E+00
(PID.TID 0000.0001) %MON dynstat_vvel_mean            =  -2.4964128368061E-04
(PID.TID 0000.0001) %MON dynstat_vvel_sd              =   3.0435501167291E+00
(PID.TID 0000.0001) %MON dynstat_vvel_del2            =   7.7141900124325E-04
(PID.TID 0000.0001) %MON dynstat_wvel_max             =   4.7582836380253E-01
(PID.TID 0000.0001) %MON dynstat_wvel_min             =  -4.9169992418877E-01
(PID.TID 0000.0001) %MON dynstat_wvel_mean            =  -1.1462733748413E-16
(PID.TID 0000.0001) %MON dynstat_wvel_sd              =   3.1113831600201E-02
(PID.TID 0000.0001) %MON dynstat_wvel_del2            =   1.8949080882766E-04
(PID.TID 0000.0001) %MON dynstat_theta_max            =   6.1198755682525E+02
(PID.TID 0000.0001) %MON dynstat_theta_min            =   2.5656322540259E+02
(PID.TID 0000.0001) %MON dynstat_theta_mean           =   3.2638684662415E+02
(PID.TID 0000.0001) %MON dynstat_theta_sd             =   6.8681237780148E+01
(PID.TID 0000.0001) %MON dynstat_theta_del2           =   1.6743606740892E-03
(PID.TID 0000.0001) %MON dynstat_salt_max             =   1.0202006219043E-02
(PID.TID 0000.0001) %MON dynstat_salt_min             =  -3.4764826721226E-03
(PID.TID 0000.0001) %MON dynstat_salt_mean            =   2.8000539428606E-03
(PID.TID 0000.0001) %MON dynstat_salt_sd              =   4.0719949132867E-03
(PID.TID 0000.0001) %MON dynstat_salt_del2            =   3.4856702789764E-07
(PID.TID 0000.0001) %MON advcfl_uvel_max              =   6.8878925016969E-03
(PID.TID 0000.0001) %MON advcfl_vvel_max              =   6.4186446097822E-03
(PID.TID 0000.0001) %MON advcfl_wvel_max              =   3.6877494314157E-02
(PID.TID 0000.0001) %MON advcfl_W_hf_max              =   3.6902582231384E-02
(PID.TID 0000.0001) %MON pe_b_mean                    =   6.1897246301537E-02
(PID.TID 0000.0001) %MON ke_max                       =   2.1122614623495E+01
(PID.TID 0000.0001) %MON ke_mean                      =   4.6757039192493E+00
(PID.TID 0000.0001) %MON ke_vol                       =   5.0990436378179E+19
(PID.TID 0000.0001) %MON vort_r_min                   =  -1.5546321416534E-06
(PID.TID 0000.0001) %MON vort_r_max                   =   1.4090161626587E-06
(PID.TID 0000.0001) %MON vort_a_mean                  =  -1.0815590592206E-12
(PID.TID 0000.0001) %MON vort_a_sd                    =   8.4223867643231E-05
(PID.TID 0000.0001) %MON vort_p_mean                  =  -1.0815596152798E-12
(PID.TID 0000.0001) %MON vort_p_sd                    =   8.4190896168395E-05
(PID.TID 0000.0001) %MON surfExpan_theta_mean         =  -1.2561591286133E+00
(PID.TID 0000.0001) %MON surfExpan_salt_mean          =  -1.2079137474362E-04
(PID.TID 0000.0001) %MON surfExpan_Heat_mean          =  -1.0945578270281E+02
(PID.TID 0000.0001) %MON En_Budget_T2PE_mean          =   1.4324845645350E+01
(PID.TID 0000.0001) // =======================================================
(PID.TID 0000.0001) // End MONITOR dynamic field statistics
(PID.TID 0000.0001) // =======================================================
 cg2d: Sum(rhs),rhsMax =  -1.30967237055302E-10  5.92128626726685E+01
(PID.TID 0000.0001)      cg2d_init_res =   5.36905204560376E+02
(PID.TID 0000.0001)      cg2d_iters(min,last) =      -1      96
(PID.TID 0000.0001)      cg2d_last_res =   3.10348302368037E-12
(PID.TID 0000.0001) // =======================================================
(PID.TID 0000.0001) // Begin MONITOR dynamic field statistics
(PID.TID 0000.0001) // =======================================================
(PID.TID 0000.0001) %MON time_tsnumber                =                     8
(PID.TID 0000.0001) %MON time_secondsf                =   2.4000000000000E+03
(PID.TID 0000.0001) %MON dynstat_eta_max              =   4.1373919746130E+02
(PID.TID 0000.0001) %MON dynstat_eta_min              =  -2.1863551904725E+02
(PID.TID 0000.0001) %MON dynstat_eta_mean             =   6.8279470569306E-14
(PID.TID 0000.0001) %MON dynstat_eta_sd               =   1.5420694114092E+02
(PID.TID 0000.0001) %MON dynstat_eta_del2             =   6.5652985056586E-01
(PID.TID 0000.0001) %MON dynstat_uvel_max             =   1.8925772878385E+00
(PID.TID 0000.0001) %MON dynstat_uvel_min             =  -1.4157932038337E+00
(PID.TID 0000.0001) %MON dynstat_uvel_mean            =   2.6495687310095E-01
(PID.TID 0000.0001) %MON dynstat_uvel_sd              =   2.8616047184036E-01
(PID.TID 0000.0001) %MON dynstat_uvel_del2            =   6.8664932045615E-04
(PID.TID 0000.0001) %MON dynstat_vvel_max             =   7.7234456316521E+00
(PID.TID 0000.0001) %MON dynstat_vvel_min             =  -7.7290236931941E+00
(PID.TID 0000.0001) %MON dynstat_vvel_mean            =  -2.9555071149574E-04
(PID.TID 0000.0001) %MON dynstat_vvel_sd              =   3.4621860075843E+00
(PID.TID 0000.0001) %MON dynstat_vvel_del2            =   8.9244646404645E-04
(PID.TID 0000.0001) %MON dynstat_wvel_max             =   5.4599264377512E-01
(PID.TID 0000.0001) %MON dynstat_wvel_min             =  -5.5772534929308E-01
(PID.TID 0000.0001) %MON dynstat_wvel_mean            =  -1.2359260410300E-16
(PID.TID 0000.0001) %MON dynstat_wvel_sd              =   3.5836378206451E-02
(PID.TID 0000.0001) %MON dynstat_wvel_del2            =   2.1789396814814E-04
(PID.TID 0000.0001) %MON dynstat_theta_max            =   6.1203091890733E+02
(PID.TID 0000.0001) %MON dynstat_theta_min            =   2.5657274166976E+02
(PID.TID 0000.0001) %MON dynstat_theta_mean           =   3.2639151413173E+02
(PID.TID 0000.0001) %MON dynstat_theta_sd             =   6.8676630305135E+01
(PID.TID 0000.0001) %MON dynstat_theta_del2           =   1.7569125965644E-03
(PID.TID 0000.0001) %MON dynstat_salt_max             =   1.0201525445564E-02
(PID.TID 0000.0001) %MON dynstat_salt_min             =  -3.4742202689157E-03
(PID.TID 0000.0001) %MON dynstat_salt_mean            =   2.7973411204812E-03
(PID.TID 0000.0001) %MON dynstat_salt_sd              =   4.0690938793452E-03
(PID.TID 0000.0001) %MON dynstat_salt_del2            =   3.5896677888542E-07
(PID.TID 0000.0001) %MON advcfl_uvel_max              =   8.2874460051643E-03
(PID.TID 0000.0001) %MON advcfl_vvel_max              =   7.4154338022252E-03
(PID.TID 0000.0001) %MON advcfl_wvel_max              =   4.1829401196981E-02
(PID.TID 0000.0001) %MON advcfl_W_hf_max              =   4.1833580201705E-02
(PID.TID 0000.0001) %MON pe_b_mean                    =   1.0074804418463E-01
(PID.TID 0000.0001) %MON ke_max                       =   2.7465873070881E+01
(PID.TID 0000.0001) %MON ke_mean                      =   6.0682069588145E+00
(PID.TID 0000.0001) %MON ke_vol                       =   5.0990436378179E+19
(PID.TID 0000.0001) %MON vort_r_min                   =  -1.9986490670376E-06
(PID.TID 0000.0001) %MON vort_r_max                   =   1.7993167734379E-06
(PID.TID 0000.0001) %MON vort_a_mean                  =  -1.3720599968747E-12
(PID.TID 0000.0001) %MON vort_a_sd                    =   8.4235645612739E-05
(PID.TID 0000.0001) %MON vort_p_mean                  =  -1.3720609326953E-12
(PID.TID 0000.0001) %MON vort_p_sd                    =   8.4191831879215E-05
(PID.TID 0000.0001) %MON surfExpan_theta_mean         =  -1.4251890470358E+00
(PID.TID 0000.0001) %MON surfExpan_salt_mean          =  -1.3776103570968E-04
(PID.TID 0000.0001) %MON surfExpan_Heat_mean          =  -1.2424053626159E+02
(PID.TID 0000.0001) %MON En_Budget_T2PE_mean          =   1.6283585845169E+01
(PID.TID 0000.0001) // =======================================================
(PID.TID 0000.0001) // End MONITOR dynamic field statistics
(PID.TID 0000.0001) // =======================================================
 cg2d: Sum(rhs),rhsMax =  -8.73114913702011E-11  7.17052555387626E+01
(PID.TID 0000.0001)      cg2d_init_res =   5.98772915679046E+02
(PID.TID 0000.0001)      cg2d_iters(min,last) =      -1      98
(PID.TID 0000.0001)      cg2d_last_res =   4.00834832798753E-12
(PID.TID 0000.0001) // =======================================================
(PID.TID 0000.0001) // Begin MONITOR dynamic field statistics
(PID.TID 0000.0001) // =======================================================
(PID.TID 0000.0001) %MON time_tsnumber                =                     9
(PID.TID 0000.0001) %MON time_secondsf                =   2.7000000000000E+03
(PID.TID 0000.0001) %MON dynstat_eta_max              =   4.8061112553735E+02
(PID.TID 0000.0001) %MON dynstat_eta_min              =  -2.6632462290787E+02
(PID.TID 0000.0001) %MON dynstat_eta_mean             =  -8.0328788905066E-15
(PID.TID 0000.0001) %MON dynstat_eta_sd               =   1.9147160575343E+02
(PID.TID 0000.0001) %MON dynstat_eta_del2             =   6.2662229744480E-01
(PID.TID 0000.0001) %MON dynstat_uvel_max             =   2.2613727300075E+00
(PID.TID 0000.0001) %MON dynstat_uvel_min             =  -1.6330634799840E+00
(PID.TID 0000.0001) %MON dynstat_uvel_mean            =   3.3456744418299E-01
(PID.TID 0000.0001) %MON dynstat_uvel_sd              =   3.5987118169084E-01
(PID.TID 0000.0001) %MON dynstat_uvel_del2            =   8.0788513897753E-04
(PID.TID 0000.0001) %MON dynstat_vvel_max             =   8.7801166434837E+00
(PID.TID 0000.0001) %MON dynstat_vvel_min             =  -8.7967761421579E+00
(PID.TID 0000.0001) %MON dynstat_vvel_mean            =  -3.4315703104937E-04
(PID.TID 0000.0001) %MON dynstat_vvel_sd              =   3.8744058437587E+00
(PID.TID 0000.0001) %MON dynstat_vvel_del2            =   1.0212946300608E-03
(PID.TID 0000.0001) %MON dynstat_wvel_max             =   6.1526966883328E-01
(PID.TID 0000.0001) %MON dynstat_wvel_min             =  -6.2074883611578E-01
(PID.TID 0000.0001) %MON dynstat_wvel_mean            =   3.0097680791922E-17
(PID.TID 0000.0001) %MON dynstat_wvel_sd              =   4.0797108627236E-02
(PID.TID 0000.0001) %MON dynstat_wvel_del2            =   2.4835615095410E-04
(PID.TID 0000.0001) %MON dynstat_theta_max            =   6.1210965677870E+02
(PID.TID 0000.0001) %MON dynstat_theta_min            =   2.5658278863740E+02
(PID.TID 0000.0001) %MON dynstat_theta_mean           =   3.2639395340716E+02
(PID.TID 0000.0001) %MON dynstat_theta_sd             =   6.8673704983810E+01
(PID.TID 0000.0001) %MON dynstat_theta_del2           =   1.8284551031215E-03
(PID.TID 0000.0001) %MON dynstat_salt_max             =   1.0201056086037E-02
(PID.TID 0000.0001) %MON dynstat_salt_min             =  -3.4714554000084E-03
(PID.TID 0000.0001) %MON dynstat_salt_mean            =   2.7949803152205E-03
(PID.TID 0000.0001) %MON dynstat_salt_sd              =   4.0662884721308E-03
(PID.TID 0000.0001) %MON dynstat_salt_del2            =   3.6955903313000E-07
(PID.TID 0000.0001) %MON advcfl_uvel_max              =   9.9023720288283E-03
(PID.TID 0000.0001) %MON advcfl_vvel_max              =   8.4398643016979E-03
(PID.TID 0000.0001) %MON advcfl_wvel_max              =   4.6556162708684E-02
(PID.TID 0000.0001) %MON advcfl_W_hf_max              =   4.6525424121933E-02
(PID.TID 0000.0001) %MON pe_b_mean                    =   1.5532363217168E-01
(PID.TID 0000.0001) %MON ke_max                       =   3.4730601978280E+01
(PID.TID 0000.0001) %MON ke_mean                      =   7.6247236730053E+00
(PID.TID 0000.0001) %MON ke_vol                       =   5.0990436378180E+19
(PID.TID 0000.0001) %MON vort_r_min                   =  -2.5200562737292E-06
(PID.TID 0000.0001) %MON vort_r_max                   =   2.2510659235536E-06
(PID.TID 0000.0001) %MON vort_a_mean                  =  -1.6434872760109E-12
(PID.TID 0000.0001) %MON vort_a_sd                    =   8.4248919866311E-05
(PID.TID 0000.0001) %MON vort_p_mean                  =  -1.6434886996105E-12
(PID.TID 0000.0001) %MON vort_p_sd                    =   8.4192770544227E-05
(PID.TID 0000.0001) %MON surfExpan_theta_mean         =  -1.5906755865783E+00
(PID.TID 0000.0001) %MON surfExpan_salt_mean          =  -1.5446544784689E-04
(PID.TID 0000.0001) %MON surfExpan_Heat_mean          =  -1.3873669139610E+02
(PID.TID 0000.0001) %MON En_Budget_T2PE_mean          =   1.8214635807674E+01
(PID.TID 0000.0001) // =======================================================
(PID.TID 0000.0001) // End MONITOR dynamic field statistics
(PID.TID 0000.0001) // =======================================================
 cg2d: Sum(rhs),rhsMax =  -8.00355337560177E-11  8.61250050997902E+01
(PID.TID 0000.0001)      cg2d_init_res =   6.59151847342032E+02
(PID.TID 0000.0001)      cg2d_iters(min,last) =      -1      99
(PID.TID 0000.0001)      cg2d_last_res =   2.78021863962771E-12
(PID.TID 0000.0001) // =======================================================
(PID.TID 0000.0001) // Begin MONITOR dynamic field statistics
(PID.TID 0000.0001) // =======================================================
(PID.TID 0000.0001) %MON time_tsnumber                =                    10
(PID.TID 0000.0001) %MON time_secondsf                =   3.0000000000000E+03
(PID.TID 0000.0001) %MON dynstat_eta_max              =   5.5297539032779E+02
(PID.TID 0000.0001) %MON dynstat_eta_min              =  -3.2025568874479E+02
(PID.TID 0000.0001) %MON dynstat_eta_mean             =   1.0442742557659E-13
(PID.TID 0000.0001) %MON dynstat_eta_sd               =   2.3258223918223E+02
(PID.TID 0000.0001) %MON dynstat_eta_del2             =   5.9656455095356E-01
(PID.TID 0000.0001) %MON dynstat_uvel_max             =   2.7189176196985E+00
(PID.TID 0000.0001) %MON dynstat_uvel_min             =  -1.9088575195274E+00
(PID.TID 0000.0001) %MON dynstat_uvel_mean            =   4.1181461822010E-01
(PID.TID 0000.0001) %MON dynstat_uvel_sd              =   4.4176432854549E-01
(PID.TID 0000.0001) %MON dynstat_uvel_del2            =   9.3440669552833E-04
(PID.TID 0000.0001) %MON dynstat_vvel_max             =   9.8627049997307E+00
(PID.TID 0000.0001) %MON dynstat_vvel_min             =  -9.8795451390706E+00
(PID.TID 0000.0001) %MON dynstat_vvel_mean            =  -3.9046212444488E-04
(PID.TID 0000.0001) %MON dynstat_vvel_sd              =   4.2796559426560E+00
(PID.TID 0000.0001) %MON dynstat_vvel_del2            =   1.1550895822519E-03
(PID.TID 0000.0001) %MON dynstat_wvel_max             =   6.8468434789769E-01
(PID.TID 0000.0001) %MON dynstat_wvel_min             =  -6.8252171198416E-01
(PID.TID 0000.0001) %MON dynstat_wvel_mean            =  -2.1772790360114E-17
(PID.TID 0000.0001) %MON dynstat_wvel_sd              =   4.5889449688818E-02
(PID.TID 0000.0001) %MON dynstat_wvel_del2            =   2.7952253181477E-04
(PID.TID 0000.0001) %MON dynstat_theta_max            =   6.1217849710636E+02
(PID.TID 0000.0001) %MON dynstat_theta_min            =   2.5659358023888E+02
(PID.TID 0000.0001) %MON dynstat_theta_mean           =   3.2639849205224E+02
(PID.TID 0000.0001) %MON dynstat_theta_sd             =   6.8669617528916E+01
(PID.TID 0000.0001) %MON dynstat_theta_del2           =   1.9083597962794E-03
(PID.TID 0000.0001) %MON dynstat_salt_max             =   1.0200601871351E-02
(PID.TID 0000.0001) %MON dynstat_salt_min             =  -3.4682124438257E-03
(PID.TID 0000.0001) %MON dynstat_salt_mean            =   2.7922229524586E-03
(PID.TID 0000.0001) %MON dynstat_salt_sd              =   4.0632312872886E-03
(PID.TID 0000.0001) %MON dynstat_salt_del2            =   3.8075958163604E-07
(PID.TID 0000.0001) %MON advcfl_uvel_max              =   1.1668815588660E-02
(PID.TID 0000.0001) %MON advcfl_vvel_max              =   9.4787020823063E-03
(PID.TID 0000.0001) %MON advcfl_wvel_max              =   5.1351326092327E-02
(PID.TID 0000.0001) %MON advcfl_W_hf_max              =   5.1158612858934E-02
(PID.TID 0000.0001) %MON pe_b_mean                    =   2.2918272218744E-01
(PID.TID 0000.0001) %MON ke_max                       =   4.2999526396426E+01
(PID.TID 0000.0001) %MON ke_mean                      =   9.3382610150642E+00
(PID.TID 0000.0001) %MON ke_vol                       =   5.0990436378179E+19
(PID.TID 0000.0001) %MON vort_r_min                   =  -3.1405029165782E-06
(PID.TID 0000.0001) %MON vort_r_max                   =   2.7682586498366E-06
(PID.TID 0000.0001) %MON vort_a_mean                  =  -1.8963681714372E-12
(PID.TID 0000.0001) %MON vort_a_sd                    =   8.4263670272020E-05
(PID.TID 0000.0001) %MON vort_p_mean                  =  -1.8963701850045E-12
(PID.TID 0000.0001) %MON vort_p_sd                    =   8.4193715028057E-05
(PID.TID 0000.0001) %MON surfExpan_theta_mean         =  -1.7518165761763E+00
(PID.TID 0000.0001) %MON surfExpan_salt_mean          =  -1.7097270076616E-04
(PID.TID 0000.0001) %MON surfExpan_Heat_mean          =  -1.5286888248355E+02
(PID.TID 0000.0001) %MON En_Budget_T2PE_mean          =   2.0116644298881E+01
(PID.TID 0000.0001) // =======================================================
(PID.TID 0000.0001) // End MONITOR dynamic field statistics
(PID.TID 0000.0001) // =======================================================
(PID.TID 0000.0001) DIAGSTATS_CLOSE_IO: close file: dynStDiag.0000000000.txt , unit=     9
(PID.TID 0000.0001) DIAGSTATS_CLOSE_IO: close file: flxStDiag.0000000000.txt , unit=    10
(PID.TID 0000.0001) %CHECKPOINT        10 ckptA
(PID.TID 0000.0001)   Seconds in section "ALL                    [THE_MODEL_MAIN]":
(PID.TID 0000.0001)           User time:   41.359999999999999
(PID.TID 0000.0001)         System time:  0.38000000000000000
(PID.TID 0000.0001)     Wall clock time:   41.837001085281372
(PID.TID 0000.0001)          No. starts:           1
(PID.TID 0000.0001)           No. stops:           1
(PID.TID 0000.0001)   Seconds in section "INITIALISE_FIXED       [THE_MODEL_MAIN]":
(PID.TID 0000.0001)           User time:  0.34000000000000002
(PID.TID 0000.0001)         System time:  1.00000000000000002E-002
(PID.TID 0000.0001)     Wall clock time:  0.35939788818359375
(PID.TID 0000.0001)          No. starts:           1
(PID.TID 0000.0001)           No. stops:           1
(PID.TID 0000.0001)   Seconds in section "THE_MAIN_LOOP          [THE_MODEL_MAIN]":
(PID.TID 0000.0001)           User time:   41.019999999999996
(PID.TID 0000.0001)         System time:  0.37000000000000000
(PID.TID 0000.0001)     Wall clock time:   41.477545022964478
(PID.TID 0000.0001)          No. starts:           1
(PID.TID 0000.0001)           No. stops:           1
(PID.TID 0000.0001)   Seconds in section "INITIALISE_VARIA    [THE_MAIN_LOOP]":
(PID.TID 0000.0001)           User time:   3.2400000000000002
(PID.TID 0000.0001)         System time:  7.00000000000000067E-002
(PID.TID 0000.0001)     Wall clock time:   3.3101539611816406
(PID.TID 0000.0001)          No. starts:           1
(PID.TID 0000.0001)           No. stops:           1
(PID.TID 0000.0001)   Seconds in section "MAIN LOOP           [THE_MAIN_LOOP]":
(PID.TID 0000.0001)           User time:   37.780000000000001
(PID.TID 0000.0001)         System time:  0.29999999999999999
(PID.TID 0000.0001)     Wall clock time:   38.167350769042969
(PID.TID 0000.0001)          No. starts:           1
(PID.TID 0000.0001)           No. stops:           1
(PID.TID 0000.0001)   Seconds in section "FORWARD_STEP        [THE_MAIN_LOOP]":
(PID.TID 0000.0001)           User time:   37.779999999999987
(PID.TID 0000.0001)         System time:  0.30000000000000010
(PID.TID 0000.0001)     Wall clock time:   38.167243957519531
(PID.TID 0000.0001)          No. starts:          10
(PID.TID 0000.0001)           No. stops:          10
(PID.TID 0000.0001)   Seconds in section "DO_STATEVARS_DIAGS  [FORWARD_STEP]":
(PID.TID 0000.0001)           User time:  0.69000000000001194
(PID.TID 0000.0001)         System time:   0.0000000000000000
(PID.TID 0000.0001)     Wall clock time:  0.68619513511657715
(PID.TID 0000.0001)          No. starts:          30
(PID.TID 0000.0001)           No. stops:          30
(PID.TID 0000.0001)   Seconds in section "LOAD_FIELDS_DRIVER  [FORWARD_STEP]":
(PID.TID 0000.0001)           User time:   0.0000000000000000
(PID.TID 0000.0001)         System time:   0.0000000000000000
(PID.TID 0000.0001)     Wall clock time:  2.92539596557617188E-004
(PID.TID 0000.0001)          No. starts:          10
(PID.TID 0000.0001)           No. stops:          10
(PID.TID 0000.0001)   Seconds in section "EXTERNAL_FLDS_LOAD [LOAD_FLDS_DRIVER]":
(PID.TID 0000.0001)           User time:   0.0000000000000000
(PID.TID 0000.0001)         System time:   0.0000000000000000
(PID.TID 0000.0001)     Wall clock time:  1.00851058959960938E-004
(PID.TID 0000.0001)          No. starts:          10
(PID.TID 0000.0001)           No. stops:          10
(PID.TID 0000.0001)   Seconds in section "DO_ATMOSPHERIC_PHYS [FORWARD_STEP]":
(PID.TID 0000.0001)           User time:   0.0000000000000000
(PID.TID 0000.0001)         System time:   0.0000000000000000
(PID.TID 0000.0001)     Wall clock time:  9.79900360107421875E-005
(PID.TID 0000.0001)          No. starts:          10
(PID.TID 0000.0001)           No. stops:          10
(PID.TID 0000.0001)   Seconds in section "DO_OCEANIC_PHYS     [FORWARD_STEP]":
(PID.TID 0000.0001)           User time:   4.3899999999999935
(PID.TID 0000.0001)         System time:  0.27000000000000007
(PID.TID 0000.0001)     Wall clock time:   4.6853196620941162
(PID.TID 0000.0001)          No. starts:          10
(PID.TID 0000.0001)           No. stops:          10
(PID.TID 0000.0001)   Seconds in section "DYNAMICS            [FORWARD_STEP]":
(PID.TID 0000.0001)           User time:   9.8399999999999963
(PID.TID 0000.0001)         System time:   0.0000000000000000
(PID.TID 0000.0001)     Wall clock time:   9.8666749000549316
(PID.TID 0000.0001)          No. starts:          10
(PID.TID 0000.0001)           No. stops:          10
(PID.TID 0000.0001)   Seconds in section "UPDATE_R_STAR       [FORWARD_STEP]":
(PID.TID 0000.0001)           User time:  0.50000000000000711
(PID.TID 0000.0001)         System time:   0.0000000000000000
(PID.TID 0000.0001)     Wall clock time:  0.50089931488037109
(PID.TID 0000.0001)          No. starts:          10
(PID.TID 0000.0001)           No. stops:          10
(PID.TID 0000.0001)   Seconds in section "UPDATE_CG2D         [FORWARD_STEP]":
(PID.TID 0000.0001)           User time:  0.24999999999998579
(PID.TID 0000.0001)         System time:   0.0000000000000000
(PID.TID 0000.0001)     Wall clock time:  0.23391842842102051
(PID.TID 0000.0001)          No. starts:          10
(PID.TID 0000.0001)           No. stops:          10
(PID.TID 0000.0001)   Seconds in section "SOLVE_FOR_PRESSURE  [FORWARD_STEP]":
(PID.TID 0000.0001)           User time:   3.4100000000000037
(PID.TID 0000.0001)         System time:   0.0000000000000000
(PID.TID 0000.0001)     Wall clock time:   3.4265375137329102
(PID.TID 0000.0001)          No. starts:          10
(PID.TID 0000.0001)           No. stops:          10
(PID.TID 0000.0001)   Seconds in section "MOM_CORRECTION_STEP [FORWARD_STEP]":
(PID.TID 0000.0001)           User time:   3.5799999999999983
(PID.TID 0000.0001)         System time:  1.00000000000000089E-002
(PID.TID 0000.0001)     Wall clock time:   3.5926744937896729
(PID.TID 0000.0001)          No. starts:          10
(PID.TID 0000.0001)           No. stops:          10
(PID.TID 0000.0001)   Seconds in section "SHAP_FILT_UV       [MOM_CORR_STEP]":
(PID.TID 0000.0001)           User time:   2.6800000000000139
(PID.TID 0000.0001)         System time:  1.00000000000000089E-002
(PID.TID 0000.0001)     Wall clock time:   2.6932067871093750
(PID.TID 0000.0001)          No. starts:          10
(PID.TID 0000.0001)           No. stops:          10
(PID.TID 0000.0001)   Seconds in section "ZONAL_FILT_UV      [MOM_CORR_STEP]":
(PID.TID 0000.0001)           User time:  0.67999999999999261
(PID.TID 0000.0001)         System time:   0.0000000000000000
(PID.TID 0000.0001)     Wall clock time:  0.67683720588684082
(PID.TID 0000.0001)          No. starts:          10
(PID.TID 0000.0001)           No. stops:          10
(PID.TID 0000.0001)   Seconds in section "INTEGR_CONTINUITY   [FORWARD_STEP]":
(PID.TID 0000.0001)           User time:  0.74000000000000199
(PID.TID 0000.0001)         System time:   0.0000000000000000
(PID.TID 0000.0001)     Wall clock time:  0.74051523208618164
(PID.TID 0000.0001)          No. starts:          10
(PID.TID 0000.0001)           No. stops:          10
(PID.TID 0000.0001)   Seconds in section "CALC_R_STAR         [FORWARD_STEP]":
(PID.TID 0000.0001)           User time:  4.99999999999971578E-002
(PID.TID 0000.0001)         System time:   0.0000000000000000
(PID.TID 0000.0001)     Wall clock time:  5.53808212280273438E-002
(PID.TID 0000.0001)          No. starts:          10
(PID.TID 0000.0001)           No. stops:          10
(PID.TID 0000.0001)   Seconds in section "BLOCKING_EXCHANGES  [FORWARD_STEP]":
(PID.TID 0000.0001)           User time:  0.15000000000000568
(PID.TID 0000.0001)         System time:   0.0000000000000000
(PID.TID 0000.0001)     Wall clock time:  0.15823340415954590
(PID.TID 0000.0001)          No. starts:          20
(PID.TID 0000.0001)           No. stops:          20
(PID.TID 0000.0001)   Seconds in section "THERMODYNAMICS      [FORWARD_STEP]":
(PID.TID 0000.0001)           User time:   6.4899999999999878
(PID.TID 0000.0001)         System time:   0.0000000000000000
(PID.TID 0000.0001)     Wall clock time:   6.5187811851501465
(PID.TID 0000.0001)          No. starts:          10
(PID.TID 0000.0001)           No. stops:          10
(PID.TID 0000.0001)   Seconds in section "TRC_CORRECTION_STEP [FORWARD_STEP]":
(PID.TID 0000.0001)           User time:   3.3500000000000014
(PID.TID 0000.0001)         System time:   0.0000000000000000
(PID.TID 0000.0001)     Wall clock time:   3.3486807346343994
(PID.TID 0000.0001)          No. starts:          10
(PID.TID 0000.0001)           No. stops:          10
(PID.TID 0000.0001)   Seconds in section "SHAP_FILT_TS       [TRC_CORR_STEP]":
(PID.TID 0000.0001)           User time:   2.7700000000000031
(PID.TID 0000.0001)         System time:   0.0000000000000000
(PID.TID 0000.0001)     Wall clock time:   2.7644860744476318
(PID.TID 0000.0001)          No. starts:          10
(PID.TID 0000.0001)           No. stops:          10
(PID.TID 0000.0001)   Seconds in section "ZONAL_FILT_TS      [TRC_CORR_STEP]":
(PID.TID 0000.0001)           User time:  0.46000000000000085
(PID.TID 0000.0001)         System time:   0.0000000000000000
(PID.TID 0000.0001)     Wall clock time:  0.46610045433044434
(PID.TID 0000.0001)          No. starts:          10
(PID.TID 0000.0001)           No. stops:          10
(PID.TID 0000.0001)   Seconds in section "MONITOR             [FORWARD_STEP]":
(PID.TID 0000.0001)           User time:   4.1599999999999895
(PID.TID 0000.0001)         System time:   0.0000000000000000
(PID.TID 0000.0001)     Wall clock time:   4.1445150375366211
(PID.TID 0000.0001)          No. starts:          10
(PID.TID 0000.0001)           No. stops:          10
(PID.TID 0000.0001)   Seconds in section "DO_THE_MODEL_IO     [FORWARD_STEP]":
(PID.TID 0000.0001)           User time:  7.99999999999982947E-002
(PID.TID 0000.0001)         System time:  1.00000000000000089E-002
(PID.TID 0000.0001)     Wall clock time:  8.81271362304687500E-002
(PID.TID 0000.0001)          No. starts:          10
(PID.TID 0000.0001)           No. stops:          10
(PID.TID 0000.0001)   Seconds in section "DO_WRITE_PICKUP     [FORWARD_STEP]":
(PID.TID 0000.0001)           User time:  0.10000000000000142
(PID.TID 0000.0001)         System time:  1.00000000000000089E-002
(PID.TID 0000.0001)     Wall clock time:  0.11814522743225098
(PID.TID 0000.0001)          No. starts:          10
(PID.TID 0000.0001)           No. stops:          10
(PID.TID 0000.0001) // ======================================================
(PID.TID 0000.0001) // Tile <-> Tile communication statistics
(PID.TID 0000.0001) // ======================================================
(PID.TID 0000.0001) // o Tile number: 000001
(PID.TID 0000.0001) //         No. X exchanges =              0
(PID.TID 0000.0001) //            Max. X spins =              0
(PID.TID 0000.0001) //            Min. X spins =     1000000000
(PID.TID 0000.0001) //          Total. X spins =              0
(PID.TID 0000.0001) //            Avg. X spins =       0.00E+00
(PID.TID 0000.0001) //         No. Y exchanges =              0
(PID.TID 0000.0001) //            Max. Y spins =              0
(PID.TID 0000.0001) //            Min. Y spins =     1000000000
(PID.TID 0000.0001) //          Total. Y spins =              0
(PID.TID 0000.0001) //            Avg. Y spins =       0.00E+00
(PID.TID 0000.0001) // o Tile number: 000002
(PID.TID 0000.0001) //         No. X exchanges =              0
(PID.TID 0000.0001) //            Max. X spins =              0
(PID.TID 0000.0001) //            Min. X spins =     1000000000
(PID.TID 0000.0001) //          Total. X spins =              0
(PID.TID 0000.0001) //            Avg. X spins =       0.00E+00
(PID.TID 0000.0001) //         No. Y exchanges =              0
(PID.TID 0000.0001) //            Max. Y spins =              0
(PID.TID 0000.0001) //            Min. Y spins =     1000000000
(PID.TID 0000.0001) //          Total. Y spins =              0
(PID.TID 0000.0001) //            Avg. Y spins =       0.00E+00
(PID.TID 0000.0001) // o Tile number: 000003
(PID.TID 0000.0001) //         No. X exchanges =              0
(PID.TID 0000.0001) //            Max. X spins =              0
(PID.TID 0000.0001) //            Min. X spins =     1000000000
(PID.TID 0000.0001) //          Total. X spins =              0
(PID.TID 0000.0001) //            Avg. X spins =       0.00E+00
(PID.TID 0000.0001) //         No. Y exchanges =              0
(PID.TID 0000.0001) //            Max. Y spins =              0
(PID.TID 0000.0001) //            Min. Y spins =     1000000000
(PID.TID 0000.0001) //          Total. Y spins =              0
(PID.TID 0000.0001) //            Avg. Y spins =       0.00E+00
(PID.TID 0000.0001) // o Tile number: 000004
(PID.TID 0000.0001) //         No. X exchanges =              0
(PID.TID 0000.0001) //            Max. X spins =              0
(PID.TID 0000.0001) //            Min. X spins =     1000000000
(PID.TID 0000.0001) //          Total. X spins =              0
(PID.TID 0000.0001) //            Avg. X spins =       0.00E+00
(PID.TID 0000.0001) //         No. Y exchanges =              0
(PID.TID 0000.0001) //            Max. Y spins =              0
(PID.TID 0000.0001) //            Min. Y spins =     1000000000
(PID.TID 0000.0001) //          Total. Y spins =              0
(PID.TID 0000.0001) //            Avg. Y spins =       0.00E+00
(PID.TID 0000.0001) // o Thread number: 000001
(PID.TID 0000.0001) //            No. barriers =           7555
(PID.TID 0000.0001) //      Max. barrier spins =              1
(PID.TID 0000.0001) //      Min. barrier spins =              1
(PID.TID 0000.0001) //     Total barrier spins =           7555
(PID.TID 0000.0001) //      Avg. barrier spins =       1.00E+00
PROGRAM MAIN: Execution ended Normally
