(PID.TID 0000.0001) 
(PID.TID 0000.0001) // ======================================================
(PID.TID 0000.0001) //                      MITgcm UV
(PID.TID 0000.0001) //                      =========
(PID.TID 0000.0001) // ======================================================
(PID.TID 0000.0001) // execution environment starting up...
(PID.TID 0000.0001) 
(PID.TID 0000.0001) // MITgcmUV version:  checkpoint63s
(PID.TID 0000.0001) // Build user:        jmc
(PID.TID 0000.0001) // Build host:        baudelaire
(PID.TID 0000.0001) // Build date:        Mon Oct  1 06:16:00 EDT 2012
(PID.TID 0000.0001) 
(PID.TID 0000.0001) // =======================================================
(PID.TID 0000.0001) // Execution Environment parameter file "eedata"
(PID.TID 0000.0001) // =======================================================
(PID.TID 0000.0001) ># Example "eedata" file
(PID.TID 0000.0001) ># Lines beginning "#" are comments
(PID.TID 0000.0001) ># nTx - No. threads per process in X
(PID.TID 0000.0001) ># nTy - No. threads per process in Y
(PID.TID 0000.0001) > &EEPARMS
(PID.TID 0000.0001) > useCubedSphereExchange=.TRUE.,
(PID.TID 0000.0001) > nTx=1,
(PID.TID 0000.0001) > nTy=1,
(PID.TID 0000.0001) > /
(PID.TID 0000.0001) ># Note: Some systems use & as the namelist terminator (as shown here).
(PID.TID 0000.0001) >#       Other systems use a / character.
(PID.TID 0000.0001) 
(PID.TID 0000.0001) // =======================================================
(PID.TID 0000.0001) // Computational Grid Specification ( see files "SIZE.h" )
(PID.TID 0000.0001) //                                  ( and "eedata"       )
(PID.TID 0000.0001) // =======================================================
(PID.TID 0000.0001)      nPx =    1 ; /* No. processes in X */
(PID.TID 0000.0001)      nPy =    1 ; /* No. processes in Y */
(PID.TID 0000.0001)      nSx =    6 ; /* No. tiles in X per process */
(PID.TID 0000.0001)      nSy =    1 ; /* No. tiles in Y per process */
(PID.TID 0000.0001)      sNx =   32 ; /* Tile size in X */
(PID.TID 0000.0001)      sNy =   32 ; /* Tile size in Y */
(PID.TID 0000.0001)      OLx =    4 ; /* Tile overlap distance in X */
(PID.TID 0000.0001)      OLy =    4 ; /* Tile overlap distance in Y */
(PID.TID 0000.0001)      nTx =    1 ; /* No. threads in X per process */
(PID.TID 0000.0001)      nTy =    1 ; /* No. threads in Y per process */
(PID.TID 0000.0001)       Nr =   25 ; /* No. levels in the vertical   */
(PID.TID 0000.0001)       Nx =  192 ; /* Total domain size in X ( = nPx*nSx*sNx ) */
(PID.TID 0000.0001)       Ny =   32 ; /* Total domain size in Y ( = nPy*nSy*sNy ) */
(PID.TID 0000.0001)   nTiles =    6 ; /* Total no. tiles per process ( = nSx*nSy ) */
(PID.TID 0000.0001)   nProcs =    1 ; /* Total no. processes ( = nPx*nPy ) */
(PID.TID 0000.0001) nThreads =    1 ; /* Total no. threads per process ( = nTx*nTy ) */
(PID.TID 0000.0001) usingMPI =    F ; /* Flag used to control whether MPI is in use */
(PID.TID 0000.0001)                   /*  note: To execute a program with MPI calls */
(PID.TID 0000.0001)                   /*  it must be launched appropriately e.g     */
(PID.TID 0000.0001)                   /*  "mpirun -np 64 ......"                    */
(PID.TID 0000.0001) useCoupler=    F ;/* Flag used to control communications with   */
(PID.TID 0000.0001)                   /*  other model components, through a coupler */
(PID.TID 0000.0001) debugMode =    F ; /* print debug msg. (sequence of S/R calls)  */
(PID.TID 0000.0001) printMapIncludesZeros=    F ; /* print zeros in Std.Output maps */
(PID.TID 0000.0001) maxLengthPrt1D=   65 /* maxLength of 1D array printed to StdOut */
(PID.TID 0000.0001) 
(PID.TID 0000.0001) // ======================================================
(PID.TID 0000.0001) // Mapping of tiles to threads
(PID.TID 0000.0001) // ======================================================
(PID.TID 0000.0001) // -o- Thread   1, tiles (   1:   6,   1:   1)
(PID.TID 0000.0001) 
(PID.TID 0000.0001) W2_READPARMS: file data.exch2 not found
(PID.TID 0000.0001) => use W2_EXCH2 default: regular 6-facets Cube
(PID.TID 0000.0001) W2_useE2ioLayOut=    T ;/* T: use Exch2 glob IO map; F: use model default */
(PID.TID 0000.0001) W2_mapIO        =  -1 ; /* select option for Exch2 global-IO map */
(PID.TID 0000.0001) W2_printMsg     =  -1 ; /* select option for printing information */
(PID.TID 0000.0001) ===== Start setting W2 TOPOLOGY:
(PID.TID 0000.0001)  write to log-file: w2_tile_topology.0000.log
(PID.TID 0000.0001) =====       setting W2 TOPOLOGY: Done
(PID.TID 0000.0001) 
(PID.TID 0000.0001)  INI_PARMS: opening model parameter file "data"
(PID.TID 0000.0001)  OPEN_COPY_DATA_FILE: opening file data
(PID.TID 0000.0001) // =======================================================
(PID.TID 0000.0001) // Parameter file "data"
(PID.TID 0000.0001) // =======================================================
(PID.TID 0000.0001) ># ====================
(PID.TID 0000.0001) ># | Model parameters |
(PID.TID 0000.0001) ># ====================
(PID.TID 0000.0001) >#
(PID.TID 0000.0001) ># Continuous equation parameters
(PID.TID 0000.0001) > &PARM01
(PID.TID 0000.0001) > tRef=295.2, 295.5, 295.9, 296.3, 296.7, 297.1, 297.6, 298.1, 298.7, 299.3,
(PID.TID 0000.0001) >      300.0, 300.7, 301.9, 304.1, 308.0, 312.0, 316.0, 320.,   324., 329.,
(PID.TID 0000.0001) >      338.,  339., 362.3, 419.2, 573.8,
(PID.TID 0000.0001) > sRef=25*0.,
(PID.TID 0000.0001) > viscAr=0.E1,
(PID.TID 0000.0001) > viscAh=0.E6,
(PID.TID 0000.0001) > viscA4=0.E17,
(PID.TID 0000.0001) > no_slip_sides=.FALSE.,
(PID.TID 0000.0001) > no_slip_bottom=.FALSE.,
(PID.TID 0000.0001) > diffKhT=0.E3,
(PID.TID 0000.0001) > diffKrT=0.,
(PID.TID 0000.0001) > diffK4T=0.E17,
(PID.TID 0000.0001) > diffKrS=0.E2,
(PID.TID 0000.0001) > diffKhS=0.E3,
(PID.TID 0000.0001) > diffK4S=0.E17,
(PID.TID 0000.0001) > buoyancyRelation='ATMOSPHERIC',
(PID.TID 0000.0001) > eosType='IDEALG',
(PID.TID 0000.0001) >#atm_Rq=0.6078,
(PID.TID 0000.0001) > Integr_GeoPot=2,
(PID.TID 0000.0001) > selectFindRoSurf=1,
(PID.TID 0000.0001) > gravity=9.81,
(PID.TID 0000.0001) > rhonil=1.0,
(PID.TID 0000.0001) > rhoConst=1.0,
(PID.TID 0000.0001) > rigidLid=.FALSE.,
(PID.TID 0000.0001) > implicitFreeSurface=.TRUE.,
(PID.TID 0000.0001) > exactConserv=.TRUE.,
(PID.TID 0000.0001) > select_rStar=2,
(PID.TID 0000.0001) > nonlinFreeSurf=4,
(PID.TID 0000.0001) > hFacInf=0.2,
(PID.TID 0000.0001) > hFacSup=2.0,
(PID.TID 0000.0001) > hFacMin=1.0,
(PID.TID 0000.0001) > uniformLin_PhiSurf=.FALSE.,
(PID.TID 0000.0001) > vectorInvariantMomentum=.TRUE.,
(PID.TID 0000.0001) >#tempAdvScheme=77,
(PID.TID 0000.0001) > saltAdvScheme=77,
(PID.TID 0000.0001) > staggerTimeStep=.TRUE.,
(PID.TID 0000.0001) > readBinaryPrec=64,
(PID.TID 0000.0001) > writeBinaryPrec=64,
(PID.TID 0000.0001) > globalFiles=.TRUE.,
(PID.TID 0000.0001) > /
(PID.TID 0000.0001) >
(PID.TID 0000.0001) ># Elliptic solver parameters
(PID.TID 0000.0001) > &PARM02
(PID.TID 0000.0001) > cg2dMaxIters=200,
(PID.TID 0000.0001) > cg2dTargetResWunit=1.E-17,
(PID.TID 0000.0001) > /
(PID.TID 0000.0001) >
(PID.TID 0000.0001) ># Time stepping parameters
(PID.TID 0000.0001) > &PARM03
(PID.TID 0000.0001) > nIter0=0,
(PID.TID 0000.0001) > nTimeSteps=10,
(PID.TID 0000.0001) >#endTime=864000.,
(PID.TID 0000.0001) >#endTime=5184000.,
(PID.TID 0000.0001) > deltaT=450.,
(PID.TID 0000.0001) > abEps=0.1,
(PID.TID 0000.0001) > forcing_In_AB=.FALSE.,
(PID.TID 0000.0001) > cAdjFreq=0.,
(PID.TID 0000.0001) >#chkptFreq = 864000.,
(PID.TID 0000.0001) >#pChkptFreq=2592000.,
(PID.TID 0000.0001) >#dumpFreq  = 432000.,
(PID.TID 0000.0001) >#monitorFreq= 43200.,
(PID.TID 0000.0001) >#dumpFreq   =1.,
(PID.TID 0000.0001) > monitorFreq=1.,
(PID.TID 0000.0001) > /
(PID.TID 0000.0001) >
(PID.TID 0000.0001) ># Gridding parameters
(PID.TID 0000.0001) > &PARM04
(PID.TID 0000.0001) > usingCurvilinearGrid=.TRUE.,
(PID.TID 0000.0001) > horizGridFile='dxC1_dXYa',
(PID.TID 0000.0001) > radius_fromHorizGrid=6370.E3,
(PID.TID 0000.0001) > delR=25*40.E2,
(PID.TID 0000.0001) > Ro_SeaLevel=1.E5,
(PID.TID 0000.0001) > /
(PID.TID 0000.0001) >
(PID.TID 0000.0001) ># Input datasets
(PID.TID 0000.0001) > &PARM05
(PID.TID 0000.0001) > hydrogThetaFile='ini_theta.bin',
(PID.TID 0000.0001) > hydrogSaltFile ='ini_specQ.bin',
(PID.TID 0000.0001) > /
(PID.TID 0000.0001) 
(PID.TID 0000.0001)  INI_PARMS ; starts to read PARM01
(PID.TID 0000.0001)  INI_PARMS ; read PARM01 : OK
(PID.TID 0000.0001)  INI_PARMS ; starts to read PARM02
(PID.TID 0000.0001)  INI_PARMS ; read PARM02 : OK
(PID.TID 0000.0001)  INI_PARMS ; starts to read PARM03
(PID.TID 0000.0001)  INI_PARMS ; read PARM03 : OK
(PID.TID 0000.0001)  INI_PARMS ; starts to read PARM04
(PID.TID 0000.0001)  INI_PARMS ; read PARM04 : OK
(PID.TID 0000.0001)  INI_PARMS ; starts to read PARM05
(PID.TID 0000.0001)  INI_PARMS ; read PARM05 : OK
(PID.TID 0000.0001)  INI_PARMS: finished reading file "data"
(PID.TID 0000.0001)  PACKAGES_BOOT: opening data.pkg
(PID.TID 0000.0001)  OPEN_COPY_DATA_FILE: opening file data.pkg
(PID.TID 0000.0001) // =======================================================
(PID.TID 0000.0001) // Parameter file "data.pkg"
(PID.TID 0000.0001) // =======================================================
(PID.TID 0000.0001) ># Packages
(PID.TID 0000.0001) > &PACKAGES
(PID.TID 0000.0001) > useSHAP_FILT=.TRUE.,
(PID.TID 0000.0001) > useDiagnostics=.TRUE.,
(PID.TID 0000.0001) > useMyPackage=.TRUE.,
(PID.TID 0000.0001) > /
(PID.TID 0000.0001) 
(PID.TID 0000.0001)  PACKAGES_BOOT: finished reading data.pkg
(PID.TID 0000.0001)  SHAP_FILT_READPARMS: opening data.shap
(PID.TID 0000.0001)  OPEN_COPY_DATA_FILE: opening file data.shap
(PID.TID 0000.0001) // =======================================================
(PID.TID 0000.0001) // Parameter file "data.shap"
(PID.TID 0000.0001) // =======================================================
(PID.TID 0000.0001) ># Shapiro Filter parameters
(PID.TID 0000.0001) > &SHAP_PARM01
(PID.TID 0000.0001) > shap_filt_uvStar=.FALSE.,
(PID.TID 0000.0001) > shap_filt_TrStagg=.TRUE.,
(PID.TID 0000.0001) > Shap_funct=2,
(PID.TID 0000.0001) > nShapT=4,
(PID.TID 0000.0001) > nShapS=0,
(PID.TID 0000.0001) > nShapUV=4,
(PID.TID 0000.0001) > nShapTrPhys=1,
(PID.TID 0000.0001) > nShapUVPhys=0,
(PID.TID 0000.0001) > Shap_TrLength=140000.,
(PID.TID 0000.0001) >#Shap_TrLength=115000.,
(PID.TID 0000.0001) >#Shap_uvLength=110000.,
(PID.TID 0000.0001) >#Shap_Trtau=5400.,
(PID.TID 0000.0001) >#Shap_uvtau=5400.,
(PID.TID 0000.0001) > Shap_Trtau=1800.,
(PID.TID 0000.0001) > Shap_uvtau=1800.,
(PID.TID 0000.0001) > /
(PID.TID 0000.0001) >
(PID.TID 0000.0001) 
(PID.TID 0000.0001)  SHAP_FILT_READPARMS: finished reading data.shap
(PID.TID 0000.0001) Shap_funct =   /* select Shapiro filter function */
(PID.TID 0000.0001)                       2
(PID.TID 0000.0001)     ;
(PID.TID 0000.0001) nShapT =   /* power of Shapiro filter for Temperat */
(PID.TID 0000.0001)                       4
(PID.TID 0000.0001)     ;
(PID.TID 0000.0001) nShapS =   /* power of Shapiro filter for Salinity */
(PID.TID 0000.0001)                       0
(PID.TID 0000.0001)     ;
(PID.TID 0000.0001) nShapUV =   /* power of Shapiro filter for momentum */
(PID.TID 0000.0001)                       4
(PID.TID 0000.0001)     ;
(PID.TID 0000.0001) shap_filt_uvStar = /* apply filter before Press. Solver */
(PID.TID 0000.0001)                   F
(PID.TID 0000.0001)     ;
(PID.TID 0000.0001) shap_filt_TrStagg = /* filter T,S before calc PhiHyd (staggerTimeStep) */
(PID.TID 0000.0001)                   T
(PID.TID 0000.0001)     ;
(PID.TID 0000.0001) Shap_alwaysExchUV = /* always exch(U,V)    nShapUV times*/
(PID.TID 0000.0001)                   F
(PID.TID 0000.0001)     ;
(PID.TID 0000.0001) Shap_alwaysExchTr = /* always exch(Tracer) nShapTr times*/
(PID.TID 0000.0001)                   F
(PID.TID 0000.0001)     ;
(PID.TID 0000.0001) nShapTrPhys =   /* power of physical-space filter (Tracer) */
(PID.TID 0000.0001)                       1
(PID.TID 0000.0001)     ;
(PID.TID 0000.0001) nShapUVPhys =   /* power of physical-space filter (Momentum) */
(PID.TID 0000.0001)                       0
(PID.TID 0000.0001)     ;
(PID.TID 0000.0001) Shap_Trtau =   /* time scale of Shapiro filter (Tracer) */
(PID.TID 0000.0001)                 1.800000000000000E+03
(PID.TID 0000.0001)     ;
(PID.TID 0000.0001) Shap_TrLength =   /* Length scale of Shapiro filter (Tracer) */
(PID.TID 0000.0001)                 1.400000000000000E+05
(PID.TID 0000.0001)     ;
(PID.TID 0000.0001) Shap_uvtau =   /* time scale of Shapiro filter (Momentum) */
(PID.TID 0000.0001)                 1.800000000000000E+03
(PID.TID 0000.0001)     ;
(PID.TID 0000.0001) Shap_uvLength =   /* Length scale of Shapiro filter (Momentum) */
(PID.TID 0000.0001)                 0.000000000000000E+00
(PID.TID 0000.0001)     ;
(PID.TID 0000.0001) Shap_noSlip =  /* No-slip parameter (0=Free-slip ; 1=No-slip)*/
(PID.TID 0000.0001)                 0.000000000000000E+00
(PID.TID 0000.0001)     ;
(PID.TID 0000.0001) Shap_diagFreq =   /* Frequency^-1 for diagnostic output (s)*/
(PID.TID 0000.0001)                 0.000000000000000E+00
(PID.TID 0000.0001)     ;
(PID.TID 0000.0001)  DIAGNOSTICS_READPARMS: opening data.diagnostics
(PID.TID 0000.0001)  OPEN_COPY_DATA_FILE: opening file data.diagnostics
(PID.TID 0000.0001) // =======================================================
(PID.TID 0000.0001) // Parameter file "data.diagnostics"
(PID.TID 0000.0001) // =======================================================
(PID.TID 0000.0001) ># Diagnostic Package Choices
(PID.TID 0000.0001) >#--------------------
(PID.TID 0000.0001) >#  dumpAtLast (logical): always write output at the end of simulation (default=F)
(PID.TID 0000.0001) >#  diag_mnc   (logical): write to NetCDF files (default=useMNC)
(PID.TID 0000.0001) >#--for each output-stream:
(PID.TID 0000.0001) >#  fileName(n) : prefix of the output file name (max 80c long) for outp.stream n
(PID.TID 0000.0001) >#  frequency(n):< 0 : write snap-shot output every |frequency| seconds
(PID.TID 0000.0001) >#               > 0 : write time-average output every frequency seconds
(PID.TID 0000.0001) >#  timePhase(n)     : write at time = timePhase + multiple of |frequency|
(PID.TID 0000.0001) >#    averagingFreq  : frequency (in s) for periodic averaging interval
(PID.TID 0000.0001) >#    averagingPhase : phase     (in s) for periodic averaging interval
(PID.TID 0000.0001) >#    repeatCycle    : number of averaging intervals in 1 cycle
(PID.TID 0000.0001) >#  levels(:,n) : list of levels to write to file (Notes: declared as REAL)
(PID.TID 0000.0001) >#                when this entry is missing, select all common levels of this list
(PID.TID 0000.0001) >#  fields(:,n) : list of selected diagnostics fields (8.c) in outp.stream n
(PID.TID 0000.0001) >#                (see "available_diagnostics.log" file for the full list of diags)
(PID.TID 0000.0001) >#  missing_value(n) : missing value for real-type fields in output file "n"
(PID.TID 0000.0001) >#  fileFlags(n)     : specific code (8c string) for output file "n"
(PID.TID 0000.0001) >#--------------------
(PID.TID 0000.0001) > &DIAGNOSTICS_LIST
(PID.TID 0000.0001) ># diag_mnc     = .FALSE.,
(PID.TID 0000.0001) >#--
(PID.TID 0000.0001) >  fields(1:9,1)  = 'ETAN    ','ETANSQ  ','DETADT2 ','MYPaCprc','MYPaLprc',
(PID.TID 0000.0001) >                   'MYPaflut','MYPafluq','MYPafluu','MYPafluv',
(PID.TID 0000.0001) >   fileName(1) = 'surfDiag',
(PID.TID 0000.0001) ># fileFlags(1) = 'D       ',
(PID.TID 0000.0001) >  frequency(1) = 864000.,
(PID.TID 0000.0001) >  fields(1:13,2) = 'UVEL    ','VVEL    ','WVEL    ','THETA   ','SALT    ',
(PID.TID 0000.0001) >                   'MYPadTdt','MYPadSdt','MYPadUdt','MYPadVdt',
(PID.TID 0000.0001) >                   'MYPadttg','MYPadtqg','MYPaDifT','MYPaDifM',
(PID.TID 0000.0001) >#                  'SHAP_dU ',
(PID.TID 0000.0001) >   fileName(2) = 'dynDiag',
(PID.TID 0000.0001) ># frequency(2) = 2592000.,
(PID.TID 0000.0001) >  frequency(2) = 864000.,
(PID.TID 0000.0001) > /
(PID.TID 0000.0001) >
(PID.TID 0000.0001) >#--------------------
(PID.TID 0000.0001) ># Parameter for Diagnostics of per level statistics:
(PID.TID 0000.0001) >#--------------------
(PID.TID 0000.0001) >#  diagSt_mnc (logical): write stat-diags to NetCDF files (default=diag_mnc)
(PID.TID 0000.0001) >#  diagSt_regMaskFile : file containing the region-mask to read-in
(PID.TID 0000.0001) >#  nSetRegMskFile   : number of region-mask sets within the region-mask file
(PID.TID 0000.0001) >#  set_regMask(i)   : region-mask set-index that identifies the region "i"
(PID.TID 0000.0001) >#  val_regMask(i)   : region "i" identifier value in the region mask
(PID.TID 0000.0001) >#--for each output-stream:
(PID.TID 0000.0001) >#  stat_fName(n) : prefix of the output file name (max 80c long) for outp.stream n
(PID.TID 0000.0001) >#  stat_freq(n):< 0 : write snap-shot output every |stat_freq| seconds
(PID.TID 0000.0001) >#               > 0 : write time-average output every stat_freq seconds
(PID.TID 0000.0001) >#  stat_phase(n)    : write at time = stat_phase + multiple of |stat_freq|
(PID.TID 0000.0001) >#  stat_region(:,n) : list of "regions" (default: 1 region only=global)
(PID.TID 0000.0001) >#  stat_fields(:,n) : list of selected diagnostics fields (8.c) in outp.stream n
(PID.TID 0000.0001) >#                (see "available_diagnostics.log" file for the full list of diags)
(PID.TID 0000.0001) >#--------------------
(PID.TID 0000.0001) > &DIAG_STATIS_PARMS
(PID.TID 0000.0001) >#  diagSt_regMaskFile='northEquatMask.bin',
(PID.TID 0000.0001) >#  nSetRegMskFile = 1,
(PID.TID 0000.0001) >#  set_regMask(1:3)=  1, 1, 1,
(PID.TID 0000.0001) >#  val_regMask(1:3)=  1., 2., 0.,
(PID.TID 0000.0001) > stat_fields(1:14,1) = 'ETAN    ','THETA   ','SALT    ',
(PID.TID 0000.0001) >                       'UE_VEL_C','VN_VEL_C','WVEL    ',
(PID.TID 0000.0001) >                       'MYPadTdt','MYPadSdt','MYPadUdt','MYPadVdt',
(PID.TID 0000.0001) >                       'MYPadttg','MYPadtqg','MYPaDifT','MYPaDifM',
(PID.TID 0000.0001) >  stat_fName(1) = 'dynStDiag',
(PID.TID 0000.0001) >   stat_freq(1) = 432000.,
(PID.TID 0000.0001) >   stat_freq(1) = 43200.,
(PID.TID 0000.0001) >  stat_phase(1) = 0.,
(PID.TID 0000.0001) >#stat_fields(1:2,2)  = 'MYPaDifT','MYPaDifM',
(PID.TID 0000.0001) ># stat_fName(2) = 'diffStDiag',
(PID.TID 0000.0001) >#  stat_freq(2) = 450.,
(PID.TID 0000.0001) ># stat_region(1:3,2) = 1, 2, 0,
(PID.TID 0000.0001) ># stat_phase(2) = 0.,
(PID.TID 0000.0001) > stat_fields(1:6,3)  = 'MYPaflut','MYPafluq','MYPafluu','MYPafluv',
(PID.TID 0000.0001) >                       'MYPaCprc','MYPaLprc',
(PID.TID 0000.0001) >  stat_fName(3) = 'flxStDiag',
(PID.TID 0000.0001) >   stat_freq(3) = 432000.,
(PID.TID 0000.0001) >   stat_freq(3) = 43200.,
(PID.TID 0000.0001) >  stat_phase(3) = 0.,
(PID.TID 0000.0001) > /
(PID.TID 0000.0001) >
(PID.TID 0000.0001) 
(PID.TID 0000.0001) S/R DIAGNOSTICS_READPARMS, read namelist "diagnostics_list": start
(PID.TID 0000.0001) S/R DIAGNOSTICS_READPARMS, read namelist "diagnostics_list": OK
(PID.TID 0000.0001) S/R DIAGNOSTICS_READPARMS, read namelist "DIAG_STATIS_PARMS": start
(PID.TID 0000.0001) S/R DIAGNOSTICS_READPARMS, read namelist "DIAG_STATIS_PARMS": OK
(PID.TID 0000.0001)  DIAGNOSTICS_READPARMS: global parameter summary:
(PID.TID 0000.0001)  dumpAtLast = /* always write time-ave diags at the end */
(PID.TID 0000.0001)                   F
(PID.TID 0000.0001)     ;
(PID.TID 0000.0001)  diag_mnc =   /* write NetCDF output files */
(PID.TID 0000.0001)                   F
(PID.TID 0000.0001)     ;
(PID.TID 0000.0001)  useMissingValue = /* put MissingValue where mask = 0 */
(PID.TID 0000.0001)                   F
(PID.TID 0000.0001)     ;
(PID.TID 0000.0001)  diagCG_maxIters = /* max number of iters in diag_cg2d */
(PID.TID 0000.0001)                     200
(PID.TID 0000.0001)     ;
(PID.TID 0000.0001)  diagCG_resTarget = /* residual target for diag_cg2d */
(PID.TID 0000.0001)                 1.000000000000000E-07
(PID.TID 0000.0001)     ;
(PID.TID 0000.0001) -----------------------------------------------------
(PID.TID 0000.0001)  DIAGNOSTICS_READPARMS: active diagnostics summary:
(PID.TID 0000.0001) -----------------------------------------------------
(PID.TID 0000.0001) Creating Output Stream: surfDiag
(PID.TID 0000.0001) Output Frequency:     864000.000000 ; Phase:           0.000000
(PID.TID 0000.0001)  Averaging Freq.:     864000.000000 , Phase:           0.000000 , Cycle:   1
(PID.TID 0000.0001)  missing value:  1.234567000000E+05 ; for integers:   123456789
(PID.TID 0000.0001)  Levels:    will be set later
(PID.TID 0000.0001)  Fields:    ETAN     ETANSQ   DETADT2  MYPaCprc MYPaLprc MYPaflut MYPafluq MYPafluu MYPafluv
(PID.TID 0000.0001) Creating Output Stream: dynDiag
(PID.TID 0000.0001) Output Frequency:     864000.000000 ; Phase:           0.000000
(PID.TID 0000.0001)  Averaging Freq.:     864000.000000 , Phase:           0.000000 , Cycle:   1
(PID.TID 0000.0001)  missing value:  1.234567000000E+05 ; for integers:   123456789
(PID.TID 0000.0001)  Levels:    will be set later
(PID.TID 0000.0001)  Fields:    UVEL     VVEL     WVEL     THETA    SALT     MYPadTdt MYPadSdt MYPadUdt MYPadVdt MYPadttg
(PID.TID 0000.0001)  Fields:    MYPadtqg MYPaDifT MYPaDifM
(PID.TID 0000.0001) -----------------------------------------------------
(PID.TID 0000.0001)  DIAGNOSTICS_READPARMS: statistics diags. summary:
(PID.TID 0000.0001) Creating Stats. Output Stream: dynStDiag
(PID.TID 0000.0001) Output Frequency:      43200.000000 ; Phase:           0.000000
(PID.TID 0000.0001)  Regions:   0
(PID.TID 0000.0001)  Fields:    ETAN     THETA    SALT     UE_VEL_C VN_VEL_C WVEL     MYPadTdt MYPadSdt MYPadUdt MYPadVdt
(PID.TID 0000.0001)  Fields:    MYPadttg MYPadtqg MYPaDifT MYPaDifM
(PID.TID 0000.0001) Creating Stats. Output Stream: flxStDiag
(PID.TID 0000.0001) Output Frequency:      43200.000000 ; Phase:           0.000000
(PID.TID 0000.0001)  Regions:   0
(PID.TID 0000.0001)  Fields:    MYPaflut MYPafluq MYPafluu MYPafluv MYPaCprc MYPaLprc
(PID.TID 0000.0001) -----------------------------------------------------
(PID.TID 0000.0001) 
(PID.TID 0000.0001) MYPACKAGE_READPARMS: opening data.mypackage
(PID.TID 0000.0001)  OPEN_COPY_DATA_FILE: opening file data.mypackage
(PID.TID 0000.0001) // =======================================================
(PID.TID 0000.0001) // Parameter file "data.mypackage"
(PID.TID 0000.0001) // =======================================================
(PID.TID 0000.0001) >#
(PID.TID 0000.0001) > &MYPACKAGE_PARM01
(PID.TID 0000.0001) > myPa_Surf1File='SST_cos0.bin'
(PID.TID 0000.0001) > myPa_applyTendT=.TRUE.,
(PID.TID 0000.0001) > myPa_applyTendS=.TRUE.,
(PID.TID 0000.0001) > myPa_applyTendU=.TRUE.,
(PID.TID 0000.0001) > myPa_applyTendV=.TRUE.,
(PID.TID 0000.0001) > myPa_Tend_Cgrid=.FALSE.,
(PID.TID 0000.0001) > /
(PID.TID 0000.0001) 
(PID.TID 0000.0001) MYPACKAGE_READPARMS: finished reading data.mypackage
(PID.TID 0000.0001) SET_PARMS: done
(PID.TID 0000.0001) Enter INI_VERTICAL_GRID: setInterFDr=    T ; setCenterDr=    F
(PID.TID 0000.0001) tile:   1 ; Read from file dxC1_dXYa.face001.bin
(PID.TID 0000.0001)   => xC yC dxF dyF rA xG yG dxV dyU rAz dxC dyC rAw rAs dxG dyG AngleCS AngleSN
(PID.TID 0000.0001) tile:   2 ; Read from file dxC1_dXYa.face002.bin
(PID.TID 0000.0001)   => xC yC dxF dyF rA xG yG dxV dyU rAz dxC dyC rAw rAs dxG dyG AngleCS AngleSN
(PID.TID 0000.0001) tile:   3 ; Read from file dxC1_dXYa.face003.bin
(PID.TID 0000.0001)   => xC yC dxF dyF rA xG yG dxV dyU rAz dxC dyC rAw rAs dxG dyG AngleCS AngleSN
(PID.TID 0000.0001) tile:   4 ; Read from file dxC1_dXYa.face004.bin
(PID.TID 0000.0001)   => xC yC dxF dyF rA xG yG dxV dyU rAz dxC dyC rAw rAs dxG dyG AngleCS AngleSN
(PID.TID 0000.0001) tile:   5 ; Read from file dxC1_dXYa.face005.bin
(PID.TID 0000.0001)   => xC yC dxF dyF rA xG yG dxV dyU rAz dxC dyC rAw rAs dxG dyG AngleCS AngleSN
(PID.TID 0000.0001) tile:   6 ; Read from file dxC1_dXYa.face006.bin
(PID.TID 0000.0001)   => xC yC dxF dyF rA xG yG dxV dyU rAz dxC dyC rAw rAs dxG dyG AngleCS AngleSN
(PID.TID 0000.0001) %MON XC_max                       =   1.7854351589505E+02
(PID.TID 0000.0001) %MON XC_min                       =  -1.7854351589505E+02
(PID.TID 0000.0001) %MON XC_mean                      =  -4.6999441375798E-15
(PID.TID 0000.0001) %MON XC_sd                        =   1.0355545336287E+02
(PID.TID 0000.0001) %MON XG_max                       =   1.8000000000000E+02
(PID.TID 0000.0001) %MON XG_min                       =  -1.7708797161002E+02
(PID.TID 0000.0001) %MON XG_mean                      =   1.8603515625000E+00
(PID.TID 0000.0001) %MON XG_sd                        =   1.0357130300504E+02
(PID.TID 0000.0001) %MON DXC_max                      =   3.2375185836900E+05
(PID.TID 0000.0001) %MON DXC_min                      =   1.1353730006923E+05
(PID.TID 0000.0001) %MON DXC_mean                     =   2.8606102525036E+05
(PID.TID 0000.0001) %MON DXC_sd                       =   3.4020997630307E+04
(PID.TID 0000.0001) %MON DXF_max                      =   3.2369947500827E+05
(PID.TID 0000.0001) %MON DXF_min                      =   1.2020820513318E+05
(PID.TID 0000.0001) %MON DXF_mean                     =   2.8605437324820E+05
(PID.TID 0000.0001) %MON DXF_sd                       =   3.4050524252539E+04
(PID.TID 0000.0001) %MON DXG_max                      =   3.2375195872773E+05
(PID.TID 0000.0001) %MON DXG_min                      =   1.0098378008791E+05
(PID.TID 0000.0001) %MON DXG_mean                     =   2.8603818508931E+05
(PID.TID 0000.0001) %MON DXG_sd                       =   3.4140406908005E+04
(PID.TID 0000.0001) %MON DXV_max                      =   3.2380418162750E+05
(PID.TID 0000.0001) %MON DXV_min                      =   8.0152299824136E+04
(PID.TID 0000.0001) %MON DXV_mean                     =   2.8603970633619E+05
(PID.TID 0000.0001) %MON DXV_sd                       =   3.4145142117723E+04
(PID.TID 0000.0001) %MON YC_max                       =   8.7940663871962E+01
(PID.TID 0000.0001) %MON YC_min                       =  -8.7940663871962E+01
(PID.TID 0000.0001) %MON YC_mean                      =   0.0000000000000E+00
(PID.TID 0000.0001) %MON YC_sd                        =   3.8676242969072E+01
(PID.TID 0000.0001) %MON YG_max                       =   9.0000000000000E+01
(PID.TID 0000.0001) %MON YG_min                       =  -9.0000000000000E+01
(PID.TID 0000.0001) %MON YG_mean                      =  -1.1842378929335E-15
(PID.TID 0000.0001) %MON YG_sd                        =   3.8676895860710E+01
(PID.TID 0000.0001) %MON DYC_max                      =   3.2375185836900E+05
(PID.TID 0000.0001) %MON DYC_min                      =   1.1353730006923E+05
(PID.TID 0000.0001) %MON DYC_mean                     =   2.8606102525036E+05
(PID.TID 0000.0001) %MON DYC_sd                       =   3.4020997630307E+04
(PID.TID 0000.0001) %MON DYF_max                      =   3.2369947500827E+05
(PID.TID 0000.0001) %MON DYF_min                      =   1.2020820513318E+05
(PID.TID 0000.0001) %MON DYF_mean                     =   2.8605437324820E+05
(PID.TID 0000.0001) %MON DYF_sd                       =   3.4050524252539E+04
(PID.TID 0000.0001) %MON DYG_max                      =   3.2375195872773E+05
(PID.TID 0000.0001) %MON DYG_min                      =   1.0098378008791E+05
(PID.TID 0000.0001) %MON DYG_mean                     =   2.8603818508931E+05
(PID.TID 0000.0001) %MON DYG_sd                       =   3.4140406908005E+04
(PID.TID 0000.0001) %MON DYU_max                      =   3.2380418162750E+05
(PID.TID 0000.0001) %MON DYU_min                      =   8.0152299824136E+04
(PID.TID 0000.0001) %MON DYU_mean                     =   2.8603970633619E+05
(PID.TID 0000.0001) %MON DYU_sd                       =   3.4145142117723E+04
(PID.TID 0000.0001) %MON RA_max                       =   1.0474757731659E+11
(PID.TID 0000.0001) %MON RA_min                       =   1.5497867056722E+10
(PID.TID 0000.0001) %MON RA_mean                      =   8.2985711332657E+10
(PID.TID 0000.0001) %MON RA_sd                        =   1.7448591913787E+10
(PID.TID 0000.0001) %MON RAW_max                      =   1.0481529828871E+11
(PID.TID 0000.0001) %MON RAW_min                      =   1.1465425741966E+10
(PID.TID 0000.0001) %MON RAW_mean                     =   8.2985711332657E+10
(PID.TID 0000.0001) %MON RAW_sd                       =   1.7503889570793E+10
(PID.TID 0000.0001) %MON RAS_max                      =   1.0481529828871E+11
(PID.TID 0000.0001) %MON RAS_min                      =   1.1465425741966E+10
(PID.TID 0000.0001) %MON RAS_mean                     =   8.2985711332657E+10
(PID.TID 0000.0001) %MON RAS_sd                       =   1.7503889570793E+10
(PID.TID 0000.0001) %MON RAZ_max                      =   1.0484349334619E+11
(PID.TID 0000.0001) %MON RAZ_min                      =   8.8317900612505E+09
(PID.TID 0000.0001) %MON RAZ_mean                     =   8.2992246709235E+10
(PID.TID 0000.0001) %MON RAZ_sd                       =   1.7482297311044E+10
(PID.TID 0000.0001) %MON AngleCS_max                  =   9.9999994756719E-01
(PID.TID 0000.0001) %MON AngleCS_min                  =  -9.9968286884824E-01
(PID.TID 0000.0001) %MON AngleCS_mean                 =   3.3078922539000E-01
(PID.TID 0000.0001) %MON AngleCS_sd                   =   6.2496278958502E-01
(PID.TID 0000.0001) %MON AngleSN_max                  =   9.9968286884824E-01
(PID.TID 0000.0001) %MON AngleSN_min                  =  -9.9999994756719E-01
(PID.TID 0000.0001) %MON AngleSN_mean                 =  -3.3078922539000E-01
(PID.TID 0000.0001) %MON AngleSN_sd                   =   6.2496278958502E-01
(PID.TID 0000.0001) 
(PID.TID 0000.0001) SET_REF_STATE: PhiRef/g [m] at level Center (integer)
(PID.TID 0000.0001)                      and at level Interface (half-int.) :
(PID.TID 0000.0001)  K=  0.5  ;  r=       100000.0  ;  phiRef/g=        0.000
(PID.TID 0000.0001)  K=  1.0  ;  r=        98000.0  ;  phiRef/g=      173.888
(PID.TID 0000.0001)  K=  1.5  ;  r=        96000.0  ;  phiRef/g=      351.653
(PID.TID 0000.0001)  K=  2.0  ;  r=        94000.0  ;  phiRef/g=      529.598
(PID.TID 0000.0001)  K=  2.5  ;  r=        92000.0  ;  phiRef/g=      713.037
(PID.TID 0000.0001)  K=  3.0  ;  r=        90000.0  ;  phiRef/g=      896.724
(PID.TID 0000.0001)  K=  3.5  ;  r=        88000.0  ;  phiRef/g=     1086.339
(PID.TID 0000.0001)  K=  4.0  ;  r=        86000.0  ;  phiRef/g=     1276.210
(PID.TID 0000.0001)  K=  4.5  ;  r=        84000.0  ;  phiRef/g=     1472.499
(PID.TID 0000.0001)  K=  5.0  ;  r=        82000.0  ;  phiRef/g=     1669.052
(PID.TID 0000.0001)  K=  5.5  ;  r=        80000.0  ;  phiRef/g=     1872.579
(PID.TID 0000.0001)  K=  6.0  ;  r=        78000.0  ;  phiRef/g=     2076.380
(PID.TID 0000.0001)  K=  6.5  ;  r=        76000.0  ;  phiRef/g=     2287.789
(PID.TID 0000.0001)  K=  7.0  ;  r=        74000.0  ;  phiRef/g=     2499.554
(PID.TID 0000.0001)  K=  7.5  ;  r=        72000.0  ;  phiRef/g=     2719.661
(PID.TID 0000.0001)  K=  8.0  ;  r=        70000.0  ;  phiRef/g=     2940.137
(PID.TID 0000.0001)  K=  8.5  ;  r=        68000.0  ;  phiRef/g=     3169.806
(PID.TID 0000.0001)  K=  9.0  ;  r=        66000.0  ;  phiRef/g=     3399.937
(PID.TID 0000.0001)  K=  9.5  ;  r=        64000.0  ;  phiRef/g=     3640.258
(PID.TID 0000.0001)  K= 10.0  ;  r=        62000.0  ;  phiRef/g=     3881.061
(PID.TID 0000.0001)  K= 10.5  ;  r=        60000.0  ;  phiRef/g=     4133.232
(PID.TID 0000.0001)  K= 11.0  ;  r=        58000.0  ;  phiRef/g=     4385.993
(PID.TID 0000.0001)  K= 11.5  ;  r=        56000.0  ;  phiRef/g=     4651.531
(PID.TID 0000.0001)  K= 12.0  ;  r=        54000.0  ;  phiRef/g=     4917.689
(PID.TID 0000.0001)  K= 12.5  ;  r=        52000.0  ;  phiRef/g=     5198.326
(PID.TID 0000.0001)  K= 13.0  ;  r=        50000.0  ;  phiRef/g=     5480.084
(PID.TID 0000.0001)  K= 13.5  ;  r=        48000.0  ;  phiRef/g=     5778.436
(PID.TID 0000.0001)  K= 14.0  ;  r=        46000.0  ;  phiRef/g=     6078.962
(PID.TID 0000.0001)  K= 14.5  ;  r=        44000.0  ;  phiRef/g=     6398.780
(PID.TID 0000.0001)  K= 15.0  ;  r=        42000.0  ;  phiRef/g=     6722.700
(PID.TID 0000.0001)  K= 15.5  ;  r=        40000.0  ;  phiRef/g=     7069.470
(PID.TID 0000.0001)  K= 16.0  ;  r=        38000.0  ;  phiRef/g=     7420.744
(PID.TID 0000.0001)  K= 16.5  ;  r=        36000.0  ;  phiRef/g=     7799.519
(PID.TID 0000.0001)  K= 17.0  ;  r=        34000.0  ;  phiRef/g=     8183.151
(PID.TID 0000.0001)  K= 17.5  ;  r=        32000.0  ;  phiRef/g=     8600.524
(PID.TID 0000.0001)  K= 18.0  ;  r=        30000.0  ;  phiRef/g=     9023.181
(PID.TID 0000.0001)  K= 18.5  ;  r=        28000.0  ;  phiRef/g=     9488.250
(PID.TID 0000.0001)  K= 19.0  ;  r=        26000.0  ;  phiRef/g=     9959.131
(PID.TID 0000.0001)  K= 19.5  ;  r=        24000.0  ;  phiRef/g=    10485.022
(PID.TID 0000.0001)  K= 20.0  ;  r=        22000.0  ;  phiRef/g=    11019.028
(PID.TID 0000.0001)  K= 20.5  ;  r=        20000.0  ;  phiRef/g=    11627.690
(PID.TID 0000.0001)  K= 21.0  ;  r=        18000.0  ;  phiRef/g=    12253.003
(PID.TID 0000.0001)  K= 21.5  ;  r=        16000.0  ;  phiRef/g=    12987.218
(PID.TID 0000.0001)  K= 22.0  ;  r=        14000.0  ;  phiRef/g=    13723.604
(PID.TID 0000.0001)  K= 22.5  ;  r=        12000.0  ;  phiRef/g=    14630.263
(PID.TID 0000.0001)  K= 23.0  ;  r=        10000.0  ;  phiRef/g=    15599.238
(PID.TID 0000.0001)  K= 23.5  ;  r=         8000.0  ;  phiRef/g=    16903.264
(PID.TID 0000.0001)  K= 24.0  ;  r=         6000.0  ;  phiRef/g=    18412.089
(PID.TID 0000.0001)  K= 24.5  ;  r=         4000.0  ;  phiRef/g=    20998.836
(PID.TID 0000.0001)  K= 25.0  ;  r=         2000.0  ;  phiRef/g=    24539.570
(PID.TID 0000.0001)  K= 25.5  ;  r=            0.0  ;  phiRef/g=    43744.169
(PID.TID 0000.0001) // =======================================================
(PID.TID 0000.0001) // Field Model R_low (ini_masks_etc)
(PID.TID 0000.0001) // CMIN =          1.000000000000000E+32
(PID.TID 0000.0001) // CMAX =         -1.000000000000000E+32
(PID.TID 0000.0001) // CINT =          0.000000000000000E+00
(PID.TID 0000.0001) // SYMBOLS (CMIN->CMAX): -abcdefghijklmnopqrstuvwxyz+
(PID.TID 0000.0001) //                  0.0: .
(PID.TID 0000.0001) // RANGE I (Lo:Hi:Step):(    -3:   196:     1)
(PID.TID 0000.0001) // RANGE J (Lo:Hi:Step):(    36:    -3:    -1)
(PID.TID 0000.0001) // RANGE K (Lo:Hi:Step):(   1:   1:   1)
(PID.TID 0000.0001) // =======================================================
(PID.TID 0000.0001) // =======================================================
(PID.TID 0000.0001) // END OF FIELD                                          =
(PID.TID 0000.0001) // =======================================================
(PID.TID 0000.0001) 
(PID.TID 0000.0001) // =======================================================
(PID.TID 0000.0001) // Field Model Ro_surf (ini_masks_etc)
(PID.TID 0000.0001) // CMIN =          1.000000000000000E+05
(PID.TID 0000.0001) // CMAX =          1.000000000000000E+05
(PID.TID 0000.0001) // CINT =          0.000000000000000E+00
(PID.TID 0000.0001) // SYMBOLS (CMIN->CMAX): -abcdefghijklmnopqrstuvwxyz+
(PID.TID 0000.0001) //                  0.0: .
(PID.TID 0000.0001) // RANGE I (Lo:Hi:Step):(    -3:   196:     1)
(PID.TID 0000.0001) // RANGE J (Lo:Hi:Step):(    36:    -3:    -1)
(PID.TID 0000.0001) // RANGE K (Lo:Hi:Step):(   1:   1:   1)
(PID.TID 0000.0001) // =======================================================
(PID.TID 0000.0001) // =======================================================
(PID.TID 0000.0001) // END OF FIELD                                          =
(PID.TID 0000.0001) // =======================================================
(PID.TID 0000.0001) 
(PID.TID 0000.0001) // =======================================================
(PID.TID 0000.0001) // Field hFacC at iteration          0
(PID.TID 0000.0001) // CMIN =          1.000000000000000E+00
(PID.TID 0000.0001) // CMAX =          1.000000000000000E+00
(PID.TID 0000.0001) // CINT =          0.000000000000000E+00
(PID.TID 0000.0001) // SYMBOLS (CMIN->CMAX): -abcdefghijklmnopqrstuvwxyz+
(PID.TID 0000.0001) //                  0.0: .
(PID.TID 0000.0001) // RANGE I (Lo:Hi:Step):(    -3:   196:     1)
(PID.TID 0000.0001) // RANGE J (Lo:Hi:Step):(    36:    -3:    -1)
(PID.TID 0000.0001) // RANGE K (Lo:Hi:Step):(   1:   1:   1)
(PID.TID 0000.0001) // =======================================================
(PID.TID 0000.0001) // =======================================================
(PID.TID 0000.0001) // END OF FIELD                                          =
(PID.TID 0000.0001) // =======================================================
(PID.TID 0000.0001) 
(PID.TID 0000.0001) // =======================================================
(PID.TID 0000.0001) // Field hFacW at iteration          0
(PID.TID 0000.0001) // CMIN =          1.000000000000000E+00
(PID.TID 0000.0001) // CMAX =          1.000000000000000E+00
(PID.TID 0000.0001) // CINT =          0.000000000000000E+00
(PID.TID 0000.0001) // SYMBOLS (CMIN->CMAX): -abcdefghijklmnopqrstuvwxyz+
(PID.TID 0000.0001) //                  0.0: .
(PID.TID 0000.0001) // RANGE I (Lo:Hi:Step):(    -3:   196:     1)
(PID.TID 0000.0001) // RANGE J (Lo:Hi:Step):(    36:    -3:    -1)
(PID.TID 0000.0001) // RANGE K (Lo:Hi:Step):(   1:   1:   1)
(PID.TID 0000.0001) // =======================================================
(PID.TID 0000.0001) // =======================================================
(PID.TID 0000.0001) // END OF FIELD                                          =
(PID.TID 0000.0001) // =======================================================
(PID.TID 0000.0001) 
(PID.TID 0000.0001) // =======================================================
(PID.TID 0000.0001) // Field hFacS at iteration          0
(PID.TID 0000.0001) // CMIN =          1.000000000000000E+00
(PID.TID 0000.0001) // CMAX =          1.000000000000000E+00
(PID.TID 0000.0001) // CINT =          0.000000000000000E+00
(PID.TID 0000.0001) // SYMBOLS (CMIN->CMAX): -abcdefghijklmnopqrstuvwxyz+
(PID.TID 0000.0001) //                  0.0: .
(PID.TID 0000.0001) // RANGE I (Lo:Hi:Step):(    -3:   196:     1)
(PID.TID 0000.0001) // RANGE J (Lo:Hi:Step):(    36:    -3:    -1)
(PID.TID 0000.0001) // RANGE K (Lo:Hi:Step):(   1:   1:   1)
(PID.TID 0000.0001) // =======================================================
(PID.TID 0000.0001) // =======================================================
(PID.TID 0000.0001) // END OF FIELD                                          =
(PID.TID 0000.0001) // =======================================================
(PID.TID 0000.0001) 
(PID.TID 0000.0001) GAD_INIT_FIXED: GAD_OlMinSize=  2  0  2
(PID.TID 0000.0001) 
(PID.TID 0000.0001) // ===================================
(PID.TID 0000.0001) // GAD parameters :
(PID.TID 0000.0001) // ===================================
(PID.TID 0000.0001) tempAdvScheme =   /* Temp. Horiz.Advection scheme selector */
(PID.TID 0000.0001)                       2
(PID.TID 0000.0001)     ;
(PID.TID 0000.0001) tempVertAdvScheme =   /* Temp. Vert. Advection scheme selector */
(PID.TID 0000.0001)                       2
(PID.TID 0000.0001)     ;
(PID.TID 0000.0001) tempMultiDimAdvec =   /* use Muti-Dim Advec method for Temp */
(PID.TID 0000.0001)                   F
(PID.TID 0000.0001)     ;
(PID.TID 0000.0001) tempSOM_Advection = /* use 2nd Order Moment Advection for Temp */
(PID.TID 0000.0001)                   F
(PID.TID 0000.0001)     ;
(PID.TID 0000.0001) AdamsBashforthGt = /* apply Adams-Bashforth extrapolation on Gt */
(PID.TID 0000.0001)                   T
(PID.TID 0000.0001)     ;
(PID.TID 0000.0001) AdamsBashforth_T = /* apply Adams-Bashforth extrapolation on Temp */
(PID.TID 0000.0001)                   F
(PID.TID 0000.0001)     ;
(PID.TID 0000.0001) saltAdvScheme =   /* Salt. Horiz.advection scheme selector */
(PID.TID 0000.0001)                      77
(PID.TID 0000.0001)     ;
(PID.TID 0000.0001) saltVertAdvScheme =   /* Salt. Vert. Advection scheme selector */
(PID.TID 0000.0001)                      77
(PID.TID 0000.0001)     ;
(PID.TID 0000.0001) saltMultiDimAdvec =   /* use Muti-Dim Advec method for Salt */
(PID.TID 0000.0001)                   T
(PID.TID 0000.0001)     ;
(PID.TID 0000.0001) saltSOM_Advection = /* use 2nd Order Moment Advection for Salt */
(PID.TID 0000.0001)                   F
(PID.TID 0000.0001)     ;
(PID.TID 0000.0001) AdamsBashforthGs = /* apply Adams-Bashforth extrapolation on Gs */
(PID.TID 0000.0001)                   F
(PID.TID 0000.0001)     ;
(PID.TID 0000.0001) AdamsBashforth_S = /* apply Adams-Bashforth extrapolation on Salt */
(PID.TID 0000.0001)                   F
(PID.TID 0000.0001)     ;
(PID.TID 0000.0001) // ===================================
(PID.TID 0000.0001) MYPACKAGE_INIT_FIXED: opening data.atm_gray
(PID.TID 0000.0001)  OPEN_COPY_DATA_FILE: opening file data.atm_gray
(PID.TID 0000.0001) // =======================================================
(PID.TID 0000.0001) // Parameter file "data.atm_gray"
(PID.TID 0000.0001) // =======================================================
(PID.TID 0000.0001) >
(PID.TID 0000.0001) > &atmosphere_nml
(PID.TID 0000.0001) >    turb = .TRUE.,
(PID.TID 0000.0001) >    ldry_convection = .false.,
(PID.TID 0000.0001) >    lwet_convection = .TRUE.,
(PID.TID 0000.0001) >    do_virtual = .false.,
(PID.TID 0000.0001) >    two_stream = .true.,
(PID.TID 0000.0001) >    mixed_layer_bc = .false.,
(PID.TID 0000.0001) >    roughness_heat = 0.05,
(PID.TID 0000.0001) >    roughness_moist = 0.05,
(PID.TID 0000.0001) >    roughness_mom = 0.05,
(PID.TID 0000.0001) > /
(PID.TID 0000.0001) >
(PID.TID 0000.0001) > &radiation_nml
(PID.TID 0000.0001) ># solar_constant=
(PID.TID 0000.0001) ># del_sol=
(PID.TID 0000.0001) ># ir_tau_eq=
(PID.TID 0000.0001) ># ir_tau_pole=
(PID.TID 0000.0001) ># atm_abs=
(PID.TID 0000.0001) ># sw_diff=
(PID.TID 0000.0001) ># linear_tau=
(PID.TID 0000.0001) ># del_sw=
(PID.TID 0000.0001) ># albedo_value=
(PID.TID 0000.0001) ># window=
(PID.TID 0000.0001) ># wv_exponent=
(PID.TID 0000.0001) ># solar_exponent=
(PID.TID 0000.0001) > /
(PID.TID 0000.0001) >
(PID.TID 0000.0001) > &lscale_cond_nml
(PID.TID 0000.0001) ># hc =
(PID.TID 0000.0001) ># do_evap=
(PID.TID 0000.0001) > /
(PID.TID 0000.0001) >
(PID.TID 0000.0001) > &dargan_bettsmiller_nml
(PID.TID 0000.0001) >#  tau_bm =,
(PID.TID 0000.0001) >#  rhbm =,
(PID.TID 0000.0001) >#  do_shallower=,
(PID.TID 0000.0001) >#  do_changeqref=,
(PID.TID 0000.0001) >#  do_envsat=,
(PID.TID 0000.0001) >#  do_taucape=,
(PID.TID 0000.0001) >#  capetaubm=,
(PID.TID 0000.0001) >#  tau_min =,
(PID.TID 0000.0001) >#  do_virtual=,
(PID.TID 0000.0001) >#  do_bm_shift=,
(PID.TID 0000.0001) > /
(PID.TID 0000.0001) >
(PID.TID 0000.0001) > &surface_flux_nml
(PID.TID 0000.0001) > /
(PID.TID 0000.0001) >
(PID.TID 0000.0001) > &vert_turb_driver_nml
(PID.TID 0000.0001) >#  do_shallow_conv, do_mellor_yamada,
(PID.TID 0000.0001) >#  gust_scheme, constant_gust, use_tau,
(PID.TID 0000.0001) >#  do_molecular_diffusion
(PID.TID 0000.0001) >  do_mellor_yamada=.FALSE.,
(PID.TID 0000.0001) > /
(PID.TID 0000.0001) >
(PID.TID 0000.0001) > &diffusivity_nml
(PID.TID 0000.0001) >#  fixed_depth, depth_0, frac_inner,
(PID.TID 0000.0001) >#  rich_crit_pbl, entr_ratio, parcel_buoy,
(PID.TID 0000.0001) >#  znom, free_atm_diff, free_atm_skyhi_diff,
(PID.TID 0000.0001) >#  pbl_mcm, rich_crit_diff, mix_len, rich_prandtl,
(PID.TID 0000.0001) >#  background_m, background_t, ampns, ampns_max,
(PID.TID 0000.0001) >#  do_virtual_non_mcm
(PID.TID 0000.0001) > /
(PID.TID 0000.0001) >
(PID.TID 0000.0001) > &monin_obukhov_nml
(PID.TID 0000.0001) > /
(PID.TID 0000.0001) >
(PID.TID 0000.0001) > &my25_turb_nml
(PID.TID 0000.0001) > /
(PID.TID 0000.0001) >
(PID.TID 0000.0001) > &shallow_conv_nml
(PID.TID 0000.0001) > /
(PID.TID 0000.0001) >
(PID.TID 0000.0001) > &mixed_layer_nml
(PID.TID 0000.0001) ># evaporation, qflux_amp, depth, qflux_width
(PID.TID 0000.0001) >  depth=5000.,
(PID.TID 0000.0001) > /
(PID.TID 0000.0001) 
(PID.TID 0000.0001) MYPACKAGE_INIT_FIXED: finished reading data.atm_gray
(PID.TID 0000.0001) MIXED_LAYER_INIT: opening data.atm_gray
(PID.TID 0000.0001)  OPEN_COPY_DATA_FILE: opening file data.atm_gray
(PID.TID 0000.0001) // =======================================================
(PID.TID 0000.0001) // Parameter file "data.atm_gray"
(PID.TID 0000.0001) // =======================================================
(PID.TID 0000.0001) >
(PID.TID 0000.0001) > &atmosphere_nml
(PID.TID 0000.0001) >    turb = .TRUE.,
(PID.TID 0000.0001) >    ldry_convection = .false.,
(PID.TID 0000.0001) >    lwet_convection = .TRUE.,
(PID.TID 0000.0001) >    do_virtual = .false.,
(PID.TID 0000.0001) >    two_stream = .true.,
(PID.TID 0000.0001) >    mixed_layer_bc = .false.,
(PID.TID 0000.0001) >    roughness_heat = 0.05,
(PID.TID 0000.0001) >    roughness_moist = 0.05,
(PID.TID 0000.0001) >    roughness_mom = 0.05,
(PID.TID 0000.0001) > /
(PID.TID 0000.0001) >
(PID.TID 0000.0001) > &radiation_nml
(PID.TID 0000.0001) ># solar_constant=
(PID.TID 0000.0001) ># del_sol=
(PID.TID 0000.0001) ># ir_tau_eq=
(PID.TID 0000.0001) ># ir_tau_pole=
(PID.TID 0000.0001) ># atm_abs=
(PID.TID 0000.0001) ># sw_diff=
(PID.TID 0000.0001) ># linear_tau=
(PID.TID 0000.0001) ># del_sw=
(PID.TID 0000.0001) ># albedo_value=
(PID.TID 0000.0001) ># window=
(PID.TID 0000.0001) ># wv_exponent=
(PID.TID 0000.0001) ># solar_exponent=
(PID.TID 0000.0001) > /
(PID.TID 0000.0001) >
(PID.TID 0000.0001) > &lscale_cond_nml
(PID.TID 0000.0001) ># hc =
(PID.TID 0000.0001) ># do_evap=
(PID.TID 0000.0001) > /
(PID.TID 0000.0001) >
(PID.TID 0000.0001) > &dargan_bettsmiller_nml
(PID.TID 0000.0001) >#  tau_bm =,
(PID.TID 0000.0001) >#  rhbm =,
(PID.TID 0000.0001) >#  do_shallower=,
(PID.TID 0000.0001) >#  do_changeqref=,
(PID.TID 0000.0001) >#  do_envsat=,
(PID.TID 0000.0001) >#  do_taucape=,
(PID.TID 0000.0001) >#  capetaubm=,
(PID.TID 0000.0001) >#  tau_min =,
(PID.TID 0000.0001) >#  do_virtual=,
(PID.TID 0000.0001) >#  do_bm_shift=,
(PID.TID 0000.0001) > /
(PID.TID 0000.0001) >
(PID.TID 0000.0001) > &surface_flux_nml
(PID.TID 0000.0001) > /
(PID.TID 0000.0001) >
(PID.TID 0000.0001) > &vert_turb_driver_nml
(PID.TID 0000.0001) >#  do_shallow_conv, do_mellor_yamada,
(PID.TID 0000.0001) >#  gust_scheme, constant_gust, use_tau,
(PID.TID 0000.0001) >#  do_molecular_diffusion
(PID.TID 0000.0001) >  do_mellor_yamada=.FALSE.,
(PID.TID 0000.0001) > /
(PID.TID 0000.0001) >
(PID.TID 0000.0001) > &diffusivity_nml
(PID.TID 0000.0001) >#  fixed_depth, depth_0, frac_inner,
(PID.TID 0000.0001) >#  rich_crit_pbl, entr_ratio, parcel_buoy,
(PID.TID 0000.0001) >#  znom, free_atm_diff, free_atm_skyhi_diff,
(PID.TID 0000.0001) >#  pbl_mcm, rich_crit_diff, mix_len, rich_prandtl,
(PID.TID 0000.0001) >#  background_m, background_t, ampns, ampns_max,
(PID.TID 0000.0001) >#  do_virtual_non_mcm
(PID.TID 0000.0001) > /
(PID.TID 0000.0001) >
(PID.TID 0000.0001) > &monin_obukhov_nml
(PID.TID 0000.0001) > /
(PID.TID 0000.0001) >
(PID.TID 0000.0001) > &my25_turb_nml
(PID.TID 0000.0001) > /
(PID.TID 0000.0001) >
(PID.TID 0000.0001) > &shallow_conv_nml
(PID.TID 0000.0001) > /
(PID.TID 0000.0001) >
(PID.TID 0000.0001) > &mixed_layer_nml
(PID.TID 0000.0001) ># evaporation, qflux_amp, depth, qflux_width
(PID.TID 0000.0001) >  depth=5000.,
(PID.TID 0000.0001) > /
(PID.TID 0000.0001) 
(PID.TID 0000.0001) MIXED_LAYER_INIT: finished reading data.atm_gray
(PID.TID 0000.0001) LSCALE_COND_INIT: opening data.atm_gray
(PID.TID 0000.0001)  OPEN_COPY_DATA_FILE: opening file data.atm_gray
(PID.TID 0000.0001) // =======================================================
(PID.TID 0000.0001) // Parameter file "data.atm_gray"
(PID.TID 0000.0001) // =======================================================
(PID.TID 0000.0001) >
(PID.TID 0000.0001) > &atmosphere_nml
(PID.TID 0000.0001) >    turb = .TRUE.,
(PID.TID 0000.0001) >    ldry_convection = .false.,
(PID.TID 0000.0001) >    lwet_convection = .TRUE.,
(PID.TID 0000.0001) >    do_virtual = .false.,
(PID.TID 0000.0001) >    two_stream = .true.,
(PID.TID 0000.0001) >    mixed_layer_bc = .false.,
(PID.TID 0000.0001) >    roughness_heat = 0.05,
(PID.TID 0000.0001) >    roughness_moist = 0.05,
(PID.TID 0000.0001) >    roughness_mom = 0.05,
(PID.TID 0000.0001) > /
(PID.TID 0000.0001) >
(PID.TID 0000.0001) > &radiation_nml
(PID.TID 0000.0001) ># solar_constant=
(PID.TID 0000.0001) ># del_sol=
(PID.TID 0000.0001) ># ir_tau_eq=
(PID.TID 0000.0001) ># ir_tau_pole=
(PID.TID 0000.0001) ># atm_abs=
(PID.TID 0000.0001) ># sw_diff=
(PID.TID 0000.0001) ># linear_tau=
(PID.TID 0000.0001) ># del_sw=
(PID.TID 0000.0001) ># albedo_value=
(PID.TID 0000.0001) ># window=
(PID.TID 0000.0001) ># wv_exponent=
(PID.TID 0000.0001) ># solar_exponent=
(PID.TID 0000.0001) > /
(PID.TID 0000.0001) >
(PID.TID 0000.0001) > &lscale_cond_nml
(PID.TID 0000.0001) ># hc =
(PID.TID 0000.0001) ># do_evap=
(PID.TID 0000.0001) > /
(PID.TID 0000.0001) >
(PID.TID 0000.0001) > &dargan_bettsmiller_nml
(PID.TID 0000.0001) >#  tau_bm =,
(PID.TID 0000.0001) >#  rhbm =,
(PID.TID 0000.0001) >#  do_shallower=,
(PID.TID 0000.0001) >#  do_changeqref=,
(PID.TID 0000.0001) >#  do_envsat=,
(PID.TID 0000.0001) >#  do_taucape=,
(PID.TID 0000.0001) >#  capetaubm=,
(PID.TID 0000.0001) >#  tau_min =,
(PID.TID 0000.0001) >#  do_virtual=,
(PID.TID 0000.0001) >#  do_bm_shift=,
(PID.TID 0000.0001) > /
(PID.TID 0000.0001) >
(PID.TID 0000.0001) > &surface_flux_nml
(PID.TID 0000.0001) > /
(PID.TID 0000.0001) >
(PID.TID 0000.0001) > &vert_turb_driver_nml
(PID.TID 0000.0001) >#  do_shallow_conv, do_mellor_yamada,
(PID.TID 0000.0001) >#  gust_scheme, constant_gust, use_tau,
(PID.TID 0000.0001) >#  do_molecular_diffusion
(PID.TID 0000.0001) >  do_mellor_yamada=.FALSE.,
(PID.TID 0000.0001) > /
(PID.TID 0000.0001) >
(PID.TID 0000.0001) > &diffusivity_nml
(PID.TID 0000.0001) >#  fixed_depth, depth_0, frac_inner,
(PID.TID 0000.0001) >#  rich_crit_pbl, entr_ratio, parcel_buoy,
(PID.TID 0000.0001) >#  znom, free_atm_diff, free_atm_skyhi_diff,
(PID.TID 0000.0001) >#  pbl_mcm, rich_crit_diff, mix_len, rich_prandtl,
(PID.TID 0000.0001) >#  background_m, background_t, ampns, ampns_max,
(PID.TID 0000.0001) >#  do_virtual_non_mcm
(PID.TID 0000.0001) > /
(PID.TID 0000.0001) >
(PID.TID 0000.0001) > &monin_obukhov_nml
(PID.TID 0000.0001) > /
(PID.TID 0000.0001) >
(PID.TID 0000.0001) > &my25_turb_nml
(PID.TID 0000.0001) > /
(PID.TID 0000.0001) >
(PID.TID 0000.0001) > &shallow_conv_nml
(PID.TID 0000.0001) > /
(PID.TID 0000.0001) >
(PID.TID 0000.0001) > &mixed_layer_nml
(PID.TID 0000.0001) ># evaporation, qflux_amp, depth, qflux_width
(PID.TID 0000.0001) >  depth=5000.,
(PID.TID 0000.0001) > /
(PID.TID 0000.0001) 
(PID.TID 0000.0001) LSCALE_COND_INIT: finished reading data.atm_gray
(PID.TID 0000.0001) DARGAN_BETTSMILLER_init: opening data.atm_gray
(PID.TID 0000.0001)  OPEN_COPY_DATA_FILE: opening file data.atm_gray
(PID.TID 0000.0001) // =======================================================
(PID.TID 0000.0001) // Parameter file "data.atm_gray"
(PID.TID 0000.0001) // =======================================================
(PID.TID 0000.0001) >
(PID.TID 0000.0001) > &atmosphere_nml
(PID.TID 0000.0001) >    turb = .TRUE.,
(PID.TID 0000.0001) >    ldry_convection = .false.,
(PID.TID 0000.0001) >    lwet_convection = .TRUE.,
(PID.TID 0000.0001) >    do_virtual = .false.,
(PID.TID 0000.0001) >    two_stream = .true.,
(PID.TID 0000.0001) >    mixed_layer_bc = .false.,
(PID.TID 0000.0001) >    roughness_heat = 0.05,
(PID.TID 0000.0001) >    roughness_moist = 0.05,
(PID.TID 0000.0001) >    roughness_mom = 0.05,
(PID.TID 0000.0001) > /
(PID.TID 0000.0001) >
(PID.TID 0000.0001) > &radiation_nml
(PID.TID 0000.0001) ># solar_constant=
(PID.TID 0000.0001) ># del_sol=
(PID.TID 0000.0001) ># ir_tau_eq=
(PID.TID 0000.0001) ># ir_tau_pole=
(PID.TID 0000.0001) ># atm_abs=
(PID.TID 0000.0001) ># sw_diff=
(PID.TID 0000.0001) ># linear_tau=
(PID.TID 0000.0001) ># del_sw=
(PID.TID 0000.0001) ># albedo_value=
(PID.TID 0000.0001) ># window=
(PID.TID 0000.0001) ># wv_exponent=
(PID.TID 0000.0001) ># solar_exponent=
(PID.TID 0000.0001) > /
(PID.TID 0000.0001) >
(PID.TID 0000.0001) > &lscale_cond_nml
(PID.TID 0000.0001) ># hc =
(PID.TID 0000.0001) ># do_evap=
(PID.TID 0000.0001) > /
(PID.TID 0000.0001) >
(PID.TID 0000.0001) > &dargan_bettsmiller_nml
(PID.TID 0000.0001) >#  tau_bm =,
(PID.TID 0000.0001) >#  rhbm =,
(PID.TID 0000.0001) >#  do_shallower=,
(PID.TID 0000.0001) >#  do_changeqref=,
(PID.TID 0000.0001) >#  do_envsat=,
(PID.TID 0000.0001) >#  do_taucape=,
(PID.TID 0000.0001) >#  capetaubm=,
(PID.TID 0000.0001) >#  tau_min =,
(PID.TID 0000.0001) >#  do_virtual=,
(PID.TID 0000.0001) >#  do_bm_shift=,
(PID.TID 0000.0001) > /
(PID.TID 0000.0001) >
(PID.TID 0000.0001) > &surface_flux_nml
(PID.TID 0000.0001) > /
(PID.TID 0000.0001) >
(PID.TID 0000.0001) > &vert_turb_driver_nml
(PID.TID 0000.0001) >#  do_shallow_conv, do_mellor_yamada,
(PID.TID 0000.0001) >#  gust_scheme, constant_gust, use_tau,
(PID.TID 0000.0001) >#  do_molecular_diffusion
(PID.TID 0000.0001) >  do_mellor_yamada=.FALSE.,
(PID.TID 0000.0001) > /
(PID.TID 0000.0001) >
(PID.TID 0000.0001) > &diffusivity_nml
(PID.TID 0000.0001) >#  fixed_depth, depth_0, frac_inner,
(PID.TID 0000.0001) >#  rich_crit_pbl, entr_ratio, parcel_buoy,
(PID.TID 0000.0001) >#  znom, free_atm_diff, free_atm_skyhi_diff,
(PID.TID 0000.0001) >#  pbl_mcm, rich_crit_diff, mix_len, rich_prandtl,
(PID.TID 0000.0001) >#  background_m, background_t, ampns, ampns_max,
(PID.TID 0000.0001) >#  do_virtual_non_mcm
(PID.TID 0000.0001) > /
(PID.TID 0000.0001) >
(PID.TID 0000.0001) > &monin_obukhov_nml
(PID.TID 0000.0001) > /
(PID.TID 0000.0001) >
(PID.TID 0000.0001) > &my25_turb_nml
(PID.TID 0000.0001) > /
(PID.TID 0000.0001) >
(PID.TID 0000.0001) > &shallow_conv_nml
(PID.TID 0000.0001) > /
(PID.TID 0000.0001) >
(PID.TID 0000.0001) > &mixed_layer_nml
(PID.TID 0000.0001) ># evaporation, qflux_amp, depth, qflux_width
(PID.TID 0000.0001) >  depth=5000.,
(PID.TID 0000.0001) > /
(PID.TID 0000.0001) 
(PID.TID 0000.0001) DARGAB_BETTSMILLER_INIT: finished reading data.atm_gray
(PID.TID 0000.0001) RADIATION_INIT: opening data.atm_gray
(PID.TID 0000.0001)  OPEN_COPY_DATA_FILE: opening file data.atm_gray
(PID.TID 0000.0001) // =======================================================
(PID.TID 0000.0001) // Parameter file "data.atm_gray"
(PID.TID 0000.0001) // =======================================================
(PID.TID 0000.0001) >
(PID.TID 0000.0001) > &atmosphere_nml
(PID.TID 0000.0001) >    turb = .TRUE.,
(PID.TID 0000.0001) >    ldry_convection = .false.,
(PID.TID 0000.0001) >    lwet_convection = .TRUE.,
(PID.TID 0000.0001) >    do_virtual = .false.,
(PID.TID 0000.0001) >    two_stream = .true.,
(PID.TID 0000.0001) >    mixed_layer_bc = .false.,
(PID.TID 0000.0001) >    roughness_heat = 0.05,
(PID.TID 0000.0001) >    roughness_moist = 0.05,
(PID.TID 0000.0001) >    roughness_mom = 0.05,
(PID.TID 0000.0001) > /
(PID.TID 0000.0001) >
(PID.TID 0000.0001) > &radiation_nml
(PID.TID 0000.0001) ># solar_constant=
(PID.TID 0000.0001) ># del_sol=
(PID.TID 0000.0001) ># ir_tau_eq=
(PID.TID 0000.0001) ># ir_tau_pole=
(PID.TID 0000.0001) ># atm_abs=
(PID.TID 0000.0001) ># sw_diff=
(PID.TID 0000.0001) ># linear_tau=
(PID.TID 0000.0001) ># del_sw=
(PID.TID 0000.0001) ># albedo_value=
(PID.TID 0000.0001) ># window=
(PID.TID 0000.0001) ># wv_exponent=
(PID.TID 0000.0001) ># solar_exponent=
(PID.TID 0000.0001) > /
(PID.TID 0000.0001) >
(PID.TID 0000.0001) > &lscale_cond_nml
(PID.TID 0000.0001) ># hc =
(PID.TID 0000.0001) ># do_evap=
(PID.TID 0000.0001) > /
(PID.TID 0000.0001) >
(PID.TID 0000.0001) > &dargan_bettsmiller_nml
(PID.TID 0000.0001) >#  tau_bm =,
(PID.TID 0000.0001) >#  rhbm =,
(PID.TID 0000.0001) >#  do_shallower=,
(PID.TID 0000.0001) >#  do_changeqref=,
(PID.TID 0000.0001) >#  do_envsat=,
(PID.TID 0000.0001) >#  do_taucape=,
(PID.TID 0000.0001) >#  capetaubm=,
(PID.TID 0000.0001) >#  tau_min =,
(PID.TID 0000.0001) >#  do_virtual=,
(PID.TID 0000.0001) >#  do_bm_shift=,
(PID.TID 0000.0001) > /
(PID.TID 0000.0001) >
(PID.TID 0000.0001) > &surface_flux_nml
(PID.TID 0000.0001) > /
(PID.TID 0000.0001) >
(PID.TID 0000.0001) > &vert_turb_driver_nml
(PID.TID 0000.0001) >#  do_shallow_conv, do_mellor_yamada,
(PID.TID 0000.0001) >#  gust_scheme, constant_gust, use_tau,
(PID.TID 0000.0001) >#  do_molecular_diffusion
(PID.TID 0000.0001) >  do_mellor_yamada=.FALSE.,
(PID.TID 0000.0001) > /
(PID.TID 0000.0001) >
(PID.TID 0000.0001) > &diffusivity_nml
(PID.TID 0000.0001) >#  fixed_depth, depth_0, frac_inner,
(PID.TID 0000.0001) >#  rich_crit_pbl, entr_ratio, parcel_buoy,
(PID.TID 0000.0001) >#  znom, free_atm_diff, free_atm_skyhi_diff,
(PID.TID 0000.0001) >#  pbl_mcm, rich_crit_diff, mix_len, rich_prandtl,
(PID.TID 0000.0001) >#  background_m, background_t, ampns, ampns_max,
(PID.TID 0000.0001) >#  do_virtual_non_mcm
(PID.TID 0000.0001) > /
(PID.TID 0000.0001) >
(PID.TID 0000.0001) > &monin_obukhov_nml
(PID.TID 0000.0001) > /
(PID.TID 0000.0001) >
(PID.TID 0000.0001) > &my25_turb_nml
(PID.TID 0000.0001) > /
(PID.TID 0000.0001) >
(PID.TID 0000.0001) > &shallow_conv_nml
(PID.TID 0000.0001) > /
(PID.TID 0000.0001) >
(PID.TID 0000.0001) > &mixed_layer_nml
(PID.TID 0000.0001) ># evaporation, qflux_amp, depth, qflux_width
(PID.TID 0000.0001) >  depth=5000.,
(PID.TID 0000.0001) > /
(PID.TID 0000.0001) 
(PID.TID 0000.0001) RADIATION_INIT: finished reading data.atm_gray
(PID.TID 0000.0001) VERT_TURB_DRIVER_INIT: opening data.atm_gray
(PID.TID 0000.0001)  OPEN_COPY_DATA_FILE: opening file data.atm_gray
(PID.TID 0000.0001) // =======================================================
(PID.TID 0000.0001) // Parameter file "data.atm_gray"
(PID.TID 0000.0001) // =======================================================
(PID.TID 0000.0001) >
(PID.TID 0000.0001) > &atmosphere_nml
(PID.TID 0000.0001) >    turb = .TRUE.,
(PID.TID 0000.0001) >    ldry_convection = .false.,
(PID.TID 0000.0001) >    lwet_convection = .TRUE.,
(PID.TID 0000.0001) >    do_virtual = .false.,
(PID.TID 0000.0001) >    two_stream = .true.,
(PID.TID 0000.0001) >    mixed_layer_bc = .false.,
(PID.TID 0000.0001) >    roughness_heat = 0.05,
(PID.TID 0000.0001) >    roughness_moist = 0.05,
(PID.TID 0000.0001) >    roughness_mom = 0.05,
(PID.TID 0000.0001) > /
(PID.TID 0000.0001) >
(PID.TID 0000.0001) > &radiation_nml
(PID.TID 0000.0001) ># solar_constant=
(PID.TID 0000.0001) ># del_sol=
(PID.TID 0000.0001) ># ir_tau_eq=
(PID.TID 0000.0001) ># ir_tau_pole=
(PID.TID 0000.0001) ># atm_abs=
(PID.TID 0000.0001) ># sw_diff=
(PID.TID 0000.0001) ># linear_tau=
(PID.TID 0000.0001) ># del_sw=
(PID.TID 0000.0001) ># albedo_value=
(PID.TID 0000.0001) ># window=
(PID.TID 0000.0001) ># wv_exponent=
(PID.TID 0000.0001) ># solar_exponent=
(PID.TID 0000.0001) > /
(PID.TID 0000.0001) >
(PID.TID 0000.0001) > &lscale_cond_nml
(PID.TID 0000.0001) ># hc =
(PID.TID 0000.0001) ># do_evap=
(PID.TID 0000.0001) > /
(PID.TID 0000.0001) >
(PID.TID 0000.0001) > &dargan_bettsmiller_nml
(PID.TID 0000.0001) >#  tau_bm =,
(PID.TID 0000.0001) >#  rhbm =,
(PID.TID 0000.0001) >#  do_shallower=,
(PID.TID 0000.0001) >#  do_changeqref=,
(PID.TID 0000.0001) >#  do_envsat=,
(PID.TID 0000.0001) >#  do_taucape=,
(PID.TID 0000.0001) >#  capetaubm=,
(PID.TID 0000.0001) >#  tau_min =,
(PID.TID 0000.0001) >#  do_virtual=,
(PID.TID 0000.0001) >#  do_bm_shift=,
(PID.TID 0000.0001) > /
(PID.TID 0000.0001) >
(PID.TID 0000.0001) > &surface_flux_nml
(PID.TID 0000.0001) > /
(PID.TID 0000.0001) >
(PID.TID 0000.0001) > &vert_turb_driver_nml
(PID.TID 0000.0001) >#  do_shallow_conv, do_mellor_yamada,
(PID.TID 0000.0001) >#  gust_scheme, constant_gust, use_tau,
(PID.TID 0000.0001) >#  do_molecular_diffusion
(PID.TID 0000.0001) >  do_mellor_yamada=.FALSE.,
(PID.TID 0000.0001) > /
(PID.TID 0000.0001) >
(PID.TID 0000.0001) > &diffusivity_nml
(PID.TID 0000.0001) >#  fixed_depth, depth_0, frac_inner,
(PID.TID 0000.0001) >#  rich_crit_pbl, entr_ratio, parcel_buoy,
(PID.TID 0000.0001) >#  znom, free_atm_diff, free_atm_skyhi_diff,
(PID.TID 0000.0001) >#  pbl_mcm, rich_crit_diff, mix_len, rich_prandtl,
(PID.TID 0000.0001) >#  background_m, background_t, ampns, ampns_max,
(PID.TID 0000.0001) >#  do_virtual_non_mcm
(PID.TID 0000.0001) > /
(PID.TID 0000.0001) >
(PID.TID 0000.0001) > &monin_obukhov_nml
(PID.TID 0000.0001) > /
(PID.TID 0000.0001) >
(PID.TID 0000.0001) > &my25_turb_nml
(PID.TID 0000.0001) > /
(PID.TID 0000.0001) >
(PID.TID 0000.0001) > &shallow_conv_nml
(PID.TID 0000.0001) > /
(PID.TID 0000.0001) >
(PID.TID 0000.0001) > &mixed_layer_nml
(PID.TID 0000.0001) ># evaporation, qflux_amp, depth, qflux_width
(PID.TID 0000.0001) >  depth=5000.,
(PID.TID 0000.0001) > /
(PID.TID 0000.0001) 
(PID.TID 0000.0001) VERT_TURB_DRIVER_INIT: finished reading data.atm_gray
(PID.TID 0000.0001) ------------------------------------------------------------
(PID.TID 0000.0001) DIAGNOSTICS_SET_LEVELS: done
(PID.TID 0000.0001)  Total Nb of available Diagnostics: ndiagt=   207
(PID.TID 0000.0001)  write list of available Diagnostics to file: available_diagnostics.log
(PID.TID 0000.0001) SETDIAG: Allocate  1 x  1 Levels for Diagnostic #    23 ETAN
(PID.TID 0000.0001) SETDIAG: Allocate  1 x  1 Levels for Diagnostic #    24 ETANSQ
(PID.TID 0000.0001) SETDIAG: Allocate  1 x  1 Levels for Diagnostic #    25 DETADT2
(PID.TID 0000.0001) SETDIAG: Allocate  1 x  1 Levels for Diagnostic #   200 MYPaCprc
(PID.TID 0000.0001) SETDIAG: Allocate  1 x  1 Levels for Diagnostic #   201 MYPaLprc
(PID.TID 0000.0001) SETDIAG: Allocate  1 x  1 Levels for Diagnostic #   202 MYPaflut
(PID.TID 0000.0001) SETDIAG: Allocate  1 x  1 Levels for Diagnostic #   203 MYPafluq
(PID.TID 0000.0001) SETDIAG: Allocate  1 x  1 Levels for Diagnostic #   204 MYPafluu
(PID.TID 0000.0001) SETDIAG: Allocate  1 x  1 Levels for Diagnostic #   205 MYPafluv
(PID.TID 0000.0001) SETDIAG: Allocate 25 x  1 Levels for Diagnostic #    29 UVEL
(PID.TID 0000.0001) SETDIAG: Allocate 25 x  1 Levels for Diagnostic #    30 VVEL
(PID.TID 0000.0001) SETDIAG: Allocate 25 x  1 Levels for Diagnostic #    31 WVEL
(PID.TID 0000.0001) SETDIAG: Allocate 25 x  1 Levels for Diagnostic #    26 THETA
(PID.TID 0000.0001) SETDIAG: Allocate 25 x  1 Levels for Diagnostic #    27 SALT
(PID.TID 0000.0001) SETDIAG: Allocate 25 x  1 Levels for Diagnostic #   193 MYPadTdt
(PID.TID 0000.0001) SETDIAG: Allocate 25 x  1 Levels for Diagnostic #   194 MYPadSdt
(PID.TID 0000.0001) SETDIAG: Allocate 25 x  1 Levels for Diagnostic #   195 MYPadUdt
(PID.TID 0000.0001) SETDIAG: Allocate 25 x  1 Levels for Diagnostic #   196 MYPadVdt
(PID.TID 0000.0001) SETDIAG: Allocate 25 x  1 Levels for Diagnostic #   206 MYPadttg
(PID.TID 0000.0001) SETDIAG: Allocate 25 x  1 Levels for Diagnostic #   207 MYPadtqg
(PID.TID 0000.0001) SETDIAG: Allocate 25 x  1 Levels for Diagnostic #   198 MYPaDifT
(PID.TID 0000.0001) SETDIAG: Allocate 25 x  1 Levels for Diagnostic #   199 MYPaDifM
(PID.TID 0000.0001)   space allocated for all diagnostics:     334 levels
(PID.TID 0000.0001)   set mate pointer for diag #    29  UVEL     , Parms: UUR     MR , mate:    30
(PID.TID 0000.0001)   set mate pointer for diag #    30  VVEL     , Parms: VVR     MR , mate:    29
(PID.TID 0000.0001)   set mate pointer for diag #   195  MYPadUdt , Parms: UMR     MR , mate:   196
(PID.TID 0000.0001)   set mate pointer for diag #   196  MYPadVdt , Parms: VMR     MR , mate:   195
(PID.TID 0000.0001) DIAGNOSTICS_SET_POINTERS: Set levels for Outp.Stream: surfDiag
(PID.TID 0000.0001)  Levels:       1.
(PID.TID 0000.0001) DIAGNOSTICS_SET_POINTERS: Set levels for Outp.Stream: dynDiag
(PID.TID 0000.0001)  Levels:       1.   2.   3.   4.   5.   6.   7.   8.   9.  10.  11.  12.  13.  14.  15.  16.  17.  18.  19.  20.
(PID.TID 0000.0001)  Levels:      21.  22.  23.  24.  25.
(PID.TID 0000.0001) DIAGNOSTICS_SET_POINTERS: done
(PID.TID 0000.0001) ------------------------------------------------------------
(PID.TID 0000.0001) DIAGSTATS_SET_REGIONS: define   0 regions:
(PID.TID 0000.0001) ------------------------------------------------------------
(PID.TID 0000.0001) SETDIAG: Allocate  1 Levels for Stats-Diag #    23 ETAN
(PID.TID 0000.0001) SETDIAG: Allocate 25 Levels for Stats-Diag #    26 THETA
(PID.TID 0000.0001) SETDIAG: Allocate 25 Levels for Stats-Diag #    27 SALT
(PID.TID 0000.0001) SETDIAG: Allocate 25 Levels for Stats-Diag #    37 UE_VEL_C
(PID.TID 0000.0001) SETDIAG: Allocate 25 Levels for Stats-Diag #    38 VN_VEL_C
(PID.TID 0000.0001) SETDIAG: Allocate 25 Levels for Stats-Diag #    31 WVEL
(PID.TID 0000.0001) SETDIAG: Allocate 25 Levels for Stats-Diag #   193 MYPadTdt
(PID.TID 0000.0001) SETDIAG: Allocate 25 Levels for Stats-Diag #   194 MYPadSdt
(PID.TID 0000.0001) SETDIAG: Allocate 25 Levels for Stats-Diag #   195 MYPadUdt
(PID.TID 0000.0001) SETDIAG: Allocate 25 Levels for Stats-Diag #   196 MYPadVdt
(PID.TID 0000.0001) SETDIAG: Allocate 25 Levels for Stats-Diag #   206 MYPadttg
(PID.TID 0000.0001) SETDIAG: Allocate 25 Levels for Stats-Diag #   207 MYPadtqg
(PID.TID 0000.0001) SETDIAG: Allocate 25 Levels for Stats-Diag #   198 MYPaDifT
(PID.TID 0000.0001) SETDIAG: Allocate 25 Levels for Stats-Diag #   199 MYPaDifM
(PID.TID 0000.0001) SETDIAG: Allocate  1 Levels for Stats-Diag #   202 MYPaflut
(PID.TID 0000.0001) SETDIAG: Allocate  1 Levels for Stats-Diag #   203 MYPafluq
(PID.TID 0000.0001) SETDIAG: Allocate  1 Levels for Stats-Diag #   204 MYPafluu
(PID.TID 0000.0001) SETDIAG: Allocate  1 Levels for Stats-Diag #   205 MYPafluv
(PID.TID 0000.0001) SETDIAG: Allocate  1 Levels for Stats-Diag #   200 MYPaCprc
(PID.TID 0000.0001) SETDIAG: Allocate  1 Levels for Stats-Diag #   201 MYPaLprc
(PID.TID 0000.0001)   space allocated for all stats-diags:     332 levels
(PID.TID 0000.0001) DIAGSTATS_SET_POINTERS: done
(PID.TID 0000.0001) ------------------------------------------------------------
(PID.TID 0000.0001) DIAGSTATS_INI_IO: open file: dynStDiag.0000000000.txt , unit=     9
(PID.TID 0000.0001) DIAGSTATS_INI_IO: open file: flxStDiag.0000000000.txt , unit=    10
(PID.TID 0000.0001) INI_GLOBAL_DOMAIN: Found  24 CS-corner Pts in the domain
(PID.TID 0000.0001) %MON fCori_max                    =   1.4574827780704E-04
(PID.TID 0000.0001) %MON fCori_min                    =  -1.4574827780704E-04
(PID.TID 0000.0001) %MON fCori_mean                   =   0.0000000000000E+00
(PID.TID 0000.0001) %MON fCori_sd                     =   8.4202189509968E-05
(PID.TID 0000.0001) %MON fCoriG_max                   =   1.4584247033981E-04
(PID.TID 0000.0001) %MON fCoriG_min                   =  -1.4584247033981E-04
(PID.TID 0000.0001) %MON fCoriG_mean                  =   2.2587545260115E-21
(PID.TID 0000.0001) %MON fCoriG_sd                    =   8.4202189509968E-05
(PID.TID 0000.0001) %MON fCoriCos_max                 =   1.4580166994612E-04
(PID.TID 0000.0001) %MON fCoriCos_min                 =   5.2407700865903E-06
(PID.TID 0000.0001) %MON fCoriCos_mean                =   1.1514045869113E-04
(PID.TID 0000.0001) %MON fCoriCos_sd                  =   3.0375849106513E-05
(PID.TID 0000.0001) INI_CG2D: CG2D normalisation factor =  9.9119603843467427E-06
(PID.TID 0000.0001) INI_CG2D: cg2dTolerance = 1.123056412257120E-10 (Area=5.0986421043E+14)
(PID.TID 0000.0001) 
(PID.TID 0000.0001) // =======================================================
(PID.TID 0000.0001) // Model configuration
(PID.TID 0000.0001) // =======================================================
(PID.TID 0000.0001) //
(PID.TID 0000.0001) // "Physical" paramters ( PARM01 in namelist )
(PID.TID 0000.0001) //
(PID.TID 0000.0001) buoyancyRelation = /* Type of relation to get Buoyancy */
(PID.TID 0000.0001)               'ATMOSPHERIC'
(PID.TID 0000.0001)     ;
(PID.TID 0000.0001) fluidIsAir   =  /* fluid major constituent is Air */
(PID.TID 0000.0001)                   T
(PID.TID 0000.0001)     ;
(PID.TID 0000.0001) fluidIsWater =  /* fluid major constituent is Water */
(PID.TID 0000.0001)                   F
(PID.TID 0000.0001)     ;
(PID.TID 0000.0001) usingPCoords =  /* use p (or p*) vertical coordinate */
(PID.TID 0000.0001)                   T
(PID.TID 0000.0001)     ;
(PID.TID 0000.0001) usingZCoords =  /* use z (or z*) vertical coordinate */
(PID.TID 0000.0001)                   F
(PID.TID 0000.0001)     ;
(PID.TID 0000.0001) tRef =   /* Reference temperature profile ( oC or K ) */
(PID.TID 0000.0001)                 2.952000000000000E+02,      /* K =  1 */
(PID.TID 0000.0001)                 2.955000000000000E+02,      /* K =  2 */
(PID.TID 0000.0001)                 2.959000000000000E+02,      /* K =  3 */
(PID.TID 0000.0001)                 2.963000000000000E+02,      /* K =  4 */
(PID.TID 0000.0001)                 2.967000000000000E+02,      /* K =  5 */
(PID.TID 0000.0001)                 2.971000000000000E+02,      /* K =  6 */
(PID.TID 0000.0001)                 2.976000000000000E+02,      /* K =  7 */
(PID.TID 0000.0001)                 2.981000000000000E+02,      /* K =  8 */
(PID.TID 0000.0001)                 2.987000000000000E+02,      /* K =  9 */
(PID.TID 0000.0001)                 2.993000000000000E+02,      /* K = 10 */
(PID.TID 0000.0001)                 3.000000000000000E+02,      /* K = 11 */
(PID.TID 0000.0001)                 3.007000000000000E+02,      /* K = 12 */
(PID.TID 0000.0001)                 3.019000000000000E+02,      /* K = 13 */
(PID.TID 0000.0001)                 3.041000000000000E+02,      /* K = 14 */
(PID.TID 0000.0001)                 3.080000000000000E+02,      /* K = 15 */
(PID.TID 0000.0001)                 3.120000000000000E+02,      /* K = 16 */
(PID.TID 0000.0001)                 3.160000000000000E+02,      /* K = 17 */
(PID.TID 0000.0001)                 3.200000000000000E+02,      /* K = 18 */
(PID.TID 0000.0001)                 3.240000000000000E+02,      /* K = 19 */
(PID.TID 0000.0001)                 3.290000000000000E+02,      /* K = 20 */
(PID.TID 0000.0001)                 3.380000000000000E+02,      /* K = 21 */
(PID.TID 0000.0001)                 3.390000000000000E+02,      /* K = 22 */
(PID.TID 0000.0001)                 3.623000000000000E+02,      /* K = 23 */
(PID.TID 0000.0001)                 4.192000000000000E+02,      /* K = 24 */
(PID.TID 0000.0001)                 5.738000000000000E+02       /* K = 25 */
(PID.TID 0000.0001)     ;
(PID.TID 0000.0001) sRef =   /* Reference salinity profile ( psu ) */
(PID.TID 0000.0001)    25 @  0.000000000000000E+00              /* K =  1: 25 */
(PID.TID 0000.0001)     ;
(PID.TID 0000.0001) viscAh  =   /* Lateral eddy viscosity ( m^2/s ) */
(PID.TID 0000.0001)                 0.000000000000000E+00
(PID.TID 0000.0001)     ;
(PID.TID 0000.0001) viscAhMax = /* Maximum lateral eddy viscosity ( m^2/s ) */
(PID.TID 0000.0001)                 1.000000000000000E+21
(PID.TID 0000.0001)     ;
(PID.TID 0000.0001) viscAhGrid = /* Grid dependent lateral eddy viscosity ( non-dim. ) */
(PID.TID 0000.0001)                 0.000000000000000E+00
(PID.TID 0000.0001)     ;
(PID.TID 0000.0001) useFullLeith = /* Use Full Form of Leith Viscosity on/off flag*/
(PID.TID 0000.0001)                   F
(PID.TID 0000.0001)     ;
(PID.TID 0000.0001) useStrainTensionVisc= /* Use StrainTension Form of Viscous Operator flag*/
(PID.TID 0000.0001)                   F
(PID.TID 0000.0001)     ;
(PID.TID 0000.0001) useAreaViscLength = /* Use area for visc length instead of geom. mean*/
(PID.TID 0000.0001)                   F
(PID.TID 0000.0001)     ;
(PID.TID 0000.0001) viscC2leith = /* Leith harmonic visc. factor (on grad(vort),non-dim.) */
(PID.TID 0000.0001)                 0.000000000000000E+00
(PID.TID 0000.0001)     ;
(PID.TID 0000.0001) viscC2leithD = /* Leith harmonic viscosity factor (on grad(div),non-dim.)*/
(PID.TID 0000.0001)                 0.000000000000000E+00
(PID.TID 0000.0001)     ;
(PID.TID 0000.0001) viscC2smag = /* Smagorinsky harmonic viscosity factor (non-dim.) */
(PID.TID 0000.0001)                 0.000000000000000E+00
(PID.TID 0000.0001)     ;
(PID.TID 0000.0001) viscA4  =   /* Lateral biharmonic viscosity ( m^4/s ) */
(PID.TID 0000.0001)                 0.000000000000000E+00
(PID.TID 0000.0001)     ;
(PID.TID 0000.0001) viscA4Max = /* Maximum biharmonic viscosity ( m^2/s ) */
(PID.TID 0000.0001)                 1.000000000000000E+21
(PID.TID 0000.0001)     ;
(PID.TID 0000.0001) viscA4Grid = /* Grid dependent biharmonic viscosity ( non-dim. ) */
(PID.TID 0000.0001)                 0.000000000000000E+00
(PID.TID 0000.0001)     ;
(PID.TID 0000.0001) viscC4leith = /* Leith biharm viscosity factor (on grad(vort), non-dim.)*/
(PID.TID 0000.0001)                 0.000000000000000E+00
(PID.TID 0000.0001)     ;
(PID.TID 0000.0001) viscC4leithD = /* Leith biharm viscosity factor (on grad(div), non-dim.) */
(PID.TID 0000.0001)                 0.000000000000000E+00
(PID.TID 0000.0001)     ;
(PID.TID 0000.0001) viscC4Smag = /* Smagorinsky biharm viscosity factor (non-dim) */
(PID.TID 0000.0001)                 0.000000000000000E+00
(PID.TID 0000.0001)     ;
(PID.TID 0000.0001) no_slip_sides =  /* Viscous BCs: No-slip sides */
(PID.TID 0000.0001)                   F
(PID.TID 0000.0001)     ;
(PID.TID 0000.0001) sideDragFactor = /* side-drag scaling factor (non-dim) */
(PID.TID 0000.0001)                 2.000000000000000E+00
(PID.TID 0000.0001)     ;
(PID.TID 0000.0001) viscArNr = /* vertical profile of vertical viscosity (Pa^2/s )*/
(PID.TID 0000.0001)    25 @  0.000000000000000E+00              /* K =  1: 25 */
(PID.TID 0000.0001)     ;
(PID.TID 0000.0001) no_slip_bottom =  /* Viscous BCs: No-slip bottom */
(PID.TID 0000.0001)                   F
(PID.TID 0000.0001)     ;
(PID.TID 0000.0001) bottomDragLinear = /* linear bottom-drag coefficient ( m/s ) */
(PID.TID 0000.0001)                 0.000000000000000E+00
(PID.TID 0000.0001)     ;
(PID.TID 0000.0001) bottomDragQuadratic = /* quadratic bottom-drag coefficient (-) */
(PID.TID 0000.0001)                 0.000000000000000E+00
(PID.TID 0000.0001)     ;
(PID.TID 0000.0001) diffKhT =   /* Laplacian diffusion of heat laterally ( m^2/s ) */
(PID.TID 0000.0001)                 0.000000000000000E+00
(PID.TID 0000.0001)     ;
(PID.TID 0000.0001) diffK4T =   /* Biharmonic diffusion of heat laterally ( m^4/s ) */
(PID.TID 0000.0001)                 0.000000000000000E+00
(PID.TID 0000.0001)     ;
(PID.TID 0000.0001) diffKhS =   /* Laplacian diffusion of salt laterally ( m^2/s ) */
(PID.TID 0000.0001)                 0.000000000000000E+00
(PID.TID 0000.0001)     ;
(PID.TID 0000.0001) diffK4S =   /* Biharmonic diffusion of salt laterally ( m^4/s ) */
(PID.TID 0000.0001)                 0.000000000000000E+00
(PID.TID 0000.0001)     ;
(PID.TID 0000.0001) diffKrNrT = /* vertical profile of vertical diffusion of Temp (Pa^2/s )*/
(PID.TID 0000.0001)    25 @  0.000000000000000E+00              /* K =  1: 25 */
(PID.TID 0000.0001)     ;
(PID.TID 0000.0001) diffKrNrS = /* vertical profile of vertical diffusion of Salt (Pa^2/s )*/
(PID.TID 0000.0001)    25 @  0.000000000000000E+00              /* K =  1: 25 */
(PID.TID 0000.0001)     ;
(PID.TID 0000.0001) diffKrBL79surf = /* Surface diffusion for Bryan and Lewis 79 ( m^2/s ) */
(PID.TID 0000.0001)                 0.000000000000000E+00
(PID.TID 0000.0001)     ;
(PID.TID 0000.0001) diffKrBL79deep = /* Deep diffusion for Bryan and Lewis 1979 ( m^2/s ) */
(PID.TID 0000.0001)                 0.000000000000000E+00
(PID.TID 0000.0001)     ;
(PID.TID 0000.0001) diffKrBL79scl = /* Depth scale for Bryan and Lewis 1979 ( m ) */
(PID.TID 0000.0001)                 2.000000000000000E+02
(PID.TID 0000.0001)     ;
(PID.TID 0000.0001) diffKrBL79Ho = /* Turning depth for Bryan and Lewis 1979 ( m ) */
(PID.TID 0000.0001)                -2.000000000000000E+03
(PID.TID 0000.0001)     ;
(PID.TID 0000.0001) ivdc_kappa = /* Implicit Vertical Diffusivity for Convection (Pa^2/s) */
(PID.TID 0000.0001)                 0.000000000000000E+00
(PID.TID 0000.0001)     ;
(PID.TID 0000.0001) hMixCriteria=  /* Criteria for mixed-layer diagnostic */
(PID.TID 0000.0001)                -8.000000000000000E-01
(PID.TID 0000.0001)     ;
(PID.TID 0000.0001) dRhoSmall =  /* Parameter for mixed-layer diagnostic */
(PID.TID 0000.0001)                 1.000000000000000E-06
(PID.TID 0000.0001)     ;
(PID.TID 0000.0001) hMixSmooth=  /* Smoothing parameter for mixed-layer diagnostic */
(PID.TID 0000.0001)                 0.000000000000000E+00
(PID.TID 0000.0001)     ;
(PID.TID 0000.0001) eosType =  /* Type of Equation of State */
(PID.TID 0000.0001)               'IDEALG'
(PID.TID 0000.0001)     ;
(PID.TID 0000.0001) celsius2K = /* 0 degree Celsius converted to Kelvin ( K ) */
(PID.TID 0000.0001)                 2.731500000000000E+02
(PID.TID 0000.0001)     ;
(PID.TID 0000.0001) atm_Rd =  /* gas constant for dry air ( J/kg/K ) */
(PID.TID 0000.0001)                 2.868571428571428E+02
(PID.TID 0000.0001)     ;
(PID.TID 0000.0001) atm_Cp =  /* specific heat (Cp) of dry air ( J/kg/K ) */
(PID.TID 0000.0001)                 1.004000000000000E+03
(PID.TID 0000.0001)     ;
(PID.TID 0000.0001) atm_kappa =  /* kappa (=Rd/Cp ) of dry air */
(PID.TID 0000.0001)                 2.857142857142857E-01
(PID.TID 0000.0001)     ;
(PID.TID 0000.0001) atm_Rq = /* water vap. specific vol. anomaly relative to dry air */
(PID.TID 0000.0001)                 0.000000000000000E+00
(PID.TID 0000.0001)     ;
(PID.TID 0000.0001) atm_Po =  /* standard reference pressure ( Pa ) */
(PID.TID 0000.0001)                 1.000000000000000E+05
(PID.TID 0000.0001)     ;
(PID.TID 0000.0001) integr_GeoPot =  /* select how the geopotential is integrated */
(PID.TID 0000.0001)                       2
(PID.TID 0000.0001)     ;
(PID.TID 0000.0001) selectFindRoSurf=  /* select how Surf.Ref. pressure is defined */
(PID.TID 0000.0001)                       1
(PID.TID 0000.0001)     ;
(PID.TID 0000.0001) rhoConst  = /* Reference density (Boussinesq)  ( kg/m^3 ) */
(PID.TID 0000.0001)                 1.000000000000000E+00
(PID.TID 0000.0001)     ;
(PID.TID 0000.0001) rhoFacC = /* normalized Reference density @ cell-Center (-) */
(PID.TID 0000.0001)    25 @  1.000000000000000E+00              /* K =  1: 25 */
(PID.TID 0000.0001)     ;
(PID.TID 0000.0001) rhoFacF = /* normalized Reference density @ W-Interface (-) */
(PID.TID 0000.0001)    26 @  1.000000000000000E+00              /* K =  1: 26 */
(PID.TID 0000.0001)     ;
(PID.TID 0000.0001) rhoConstFresh = /* Fresh-water reference density ( kg/m^3 ) */
(PID.TID 0000.0001)                 1.000000000000000E+00
(PID.TID 0000.0001)     ;
(PID.TID 0000.0001) gravity =   /* Gravitational acceleration ( m/s^2 ) */
(PID.TID 0000.0001)                 9.810000000000000E+00
(PID.TID 0000.0001)     ;
(PID.TID 0000.0001) gBaro =   /* Barotropic gravity ( m/s^2 ) */
(PID.TID 0000.0001)                 9.810000000000000E+00
(PID.TID 0000.0001)     ;
(PID.TID 0000.0001) rotationPeriod =   /* Rotation Period ( s ) */
(PID.TID 0000.0001)                 8.616400000000000E+04
(PID.TID 0000.0001)     ;
(PID.TID 0000.0001) omega =   /* Angular velocity ( rad/s ) */
(PID.TID 0000.0001)                 7.292123516990375E-05
(PID.TID 0000.0001)     ;
(PID.TID 0000.0001) f0 =   /* Reference coriolis parameter ( 1/s ) */
(PID.TID 0000.0001)                 1.000000000000000E-04
(PID.TID 0000.0001)     ;
(PID.TID 0000.0001) beta =   /* Beta ( 1/(m.s) ) */
(PID.TID 0000.0001)                 9.999999999999999E-12
(PID.TID 0000.0001)     ;
(PID.TID 0000.0001) fPrime =   /* Second coriolis parameter ( 1/s ) */
(PID.TID 0000.0001)                 0.000000000000000E+00
(PID.TID 0000.0001)     ;
(PID.TID 0000.0001) rigidLid =   /* Rigid lid on/off flag */
(PID.TID 0000.0001)                   F
(PID.TID 0000.0001)     ;
(PID.TID 0000.0001) implicitFreeSurface =   /* Implicit free surface on/off flag */
(PID.TID 0000.0001)                   T
(PID.TID 0000.0001)     ;
(PID.TID 0000.0001) freeSurfFac =   /* Implicit free surface factor */
(PID.TID 0000.0001)                 1.000000000000000E+00
(PID.TID 0000.0001)     ;
(PID.TID 0000.0001) implicSurfPress =  /* Surface Pressure implicit factor (0-1)*/
(PID.TID 0000.0001)                 1.000000000000000E+00
(PID.TID 0000.0001)     ;
(PID.TID 0000.0001) implicDiv2Dflow =  /* Barot. Flow Div. implicit factor (0-1)*/
(PID.TID 0000.0001)                 1.000000000000000E+00
(PID.TID 0000.0001)     ;
(PID.TID 0000.0001) uniformLin_PhiSurf = /* use uniform Bo_surf on/off flag*/
(PID.TID 0000.0001)                   F
(PID.TID 0000.0001)     ;
(PID.TID 0000.0001) uniformFreeSurfLev = /* free-surface level-index is uniform */
(PID.TID 0000.0001)                   F
(PID.TID 0000.0001)     ;
(PID.TID 0000.0001) hFacMin =   /* minimum partial cell factor (hFac) */
(PID.TID 0000.0001)                 1.000000000000000E+00
(PID.TID 0000.0001)     ;
(PID.TID 0000.0001) hFacMinDr = /* minimum partial cell thickness (Pa) */
(PID.TID 0000.0001)                 1.000000000000000E+00
(PID.TID 0000.0001)     ;
(PID.TID 0000.0001) exactConserv =  /* Exact Volume Conservation on/off flag*/
(PID.TID 0000.0001)                   T
(PID.TID 0000.0001)     ;
(PID.TID 0000.0001) linFSConserveTr = /* Tracer correction for Lin Free Surface on/off flag*/
(PID.TID 0000.0001)                   F
(PID.TID 0000.0001)     ;
(PID.TID 0000.0001) nonlinFreeSurf = /* Non-linear Free Surf. options (-1,0,1,2,3)*/
(PID.TID 0000.0001)                       4
(PID.TID 0000.0001)      -1,0= Off ; 1,2,3= On, 2=+rescale gU,gV, 3=+update cg2d solv.
(PID.TID 0000.0001)     ;
(PID.TID 0000.0001) hFacInf =   /* lower threshold for hFac (nonlinFreeSurf only)*/
(PID.TID 0000.0001)                 2.000000000000000E-01
(PID.TID 0000.0001)     ;
(PID.TID 0000.0001) hFacSup =   /* upper threshold for hFac (nonlinFreeSurf only)*/
(PID.TID 0000.0001)                 2.000000000000000E+00
(PID.TID 0000.0001)     ;
(PID.TID 0000.0001) select_rStar = /* r* Vertical coord. options (=0 r coord.; >0 uses r*)*/
(PID.TID 0000.0001)                       2
(PID.TID 0000.0001)     ;
(PID.TID 0000.0001) useRealFreshWaterFlux = /* Real Fresh Water Flux on/off flag*/
(PID.TID 0000.0001)                   F
(PID.TID 0000.0001)     ;
(PID.TID 0000.0001) temp_EvPrRn = /* Temp. of Evap/Prec/R (UNSET=use local T)(oC)*/
(PID.TID 0000.0001)                 1.234567000000000E+05
(PID.TID 0000.0001)     ;
(PID.TID 0000.0001) salt_EvPrRn = /* Salin. of Evap/Prec/R (UNSET=use local S)(psu)*/
(PID.TID 0000.0001)                 0.000000000000000E+00
(PID.TID 0000.0001)     ;
(PID.TID 0000.0001) selectAddFluid = /* option for mass source/sink of fluid (=0: off) */
(PID.TID 0000.0001)                       0
(PID.TID 0000.0001)     ;
(PID.TID 0000.0001) temp_addMass = /* Temp. of addMass array (UNSET=use local T)(oC)*/
(PID.TID 0000.0001)                 1.234567000000000E+05
(PID.TID 0000.0001)     ;
(PID.TID 0000.0001) salt_addMass = /* Salin. of addMass array (UNSET=use local S)(psu)*/
(PID.TID 0000.0001)                 0.000000000000000E+00
(PID.TID 0000.0001)     ;
(PID.TID 0000.0001) convertFW2Salt = /* convert F.W. Flux to Salt Flux (-1=use local S)(psu)*/
(PID.TID 0000.0001)                 3.500000000000000E+01
(PID.TID 0000.0001)     ;
(PID.TID 0000.0001) use3Dsolver = /* use 3-D pressure solver on/off flag */
(PID.TID 0000.0001)                   F
(PID.TID 0000.0001)     ;
(PID.TID 0000.0001) nonHydrostatic =  /* Non-Hydrostatic on/off flag */
(PID.TID 0000.0001)                   F
(PID.TID 0000.0001)     ;
(PID.TID 0000.0001) nh_Am2 = /* Non-Hydrostatic terms scaling factor */
(PID.TID 0000.0001)                 1.000000000000000E+00
(PID.TID 0000.0001)     ;
(PID.TID 0000.0001) implicitNHPress = /* Non-Hyd Pressure implicit factor (0-1)*/
(PID.TID 0000.0001)                 1.000000000000000E+00
(PID.TID 0000.0001)     ;
(PID.TID 0000.0001) selectNHfreeSurf = /* Non-Hyd (free-)Surface option */
(PID.TID 0000.0001)                       0
(PID.TID 0000.0001)     ;
(PID.TID 0000.0001) quasiHydrostatic = /* Quasi-Hydrostatic on/off flag */
(PID.TID 0000.0001)                   F
(PID.TID 0000.0001)     ;
(PID.TID 0000.0001) calc_wVelocity = /* vertical velocity calculation on/off flag */
(PID.TID 0000.0001)                   T
(PID.TID 0000.0001)     ;
(PID.TID 0000.0001) momStepping =  /* Momentum equation on/off flag */
(PID.TID 0000.0001)                   T
(PID.TID 0000.0001)     ;
(PID.TID 0000.0001) vectorInvariantMomentum= /* Vector-Invariant Momentum on/off */
(PID.TID 0000.0001)                   T
(PID.TID 0000.0001)     ;
(PID.TID 0000.0001) momAdvection =  /* Momentum advection on/off flag */
(PID.TID 0000.0001)                   T
(PID.TID 0000.0001)     ;
(PID.TID 0000.0001) momViscosity =  /* Momentum viscosity on/off flag */
(PID.TID 0000.0001)                   T
(PID.TID 0000.0001)     ;
(PID.TID 0000.0001) momImplVertAdv= /* Momentum implicit vert. advection on/off*/
(PID.TID 0000.0001)                   F
(PID.TID 0000.0001)     ;
(PID.TID 0000.0001) implicitViscosity = /* Implicit viscosity on/off flag */
(PID.TID 0000.0001)                   F
(PID.TID 0000.0001)     ;
(PID.TID 0000.0001) metricTerms =  /* metric-Terms on/off flag */
(PID.TID 0000.0001)                   F
(PID.TID 0000.0001)     ;
(PID.TID 0000.0001) useNHMTerms = /* Non-Hydrostatic Metric-Terms on/off */
(PID.TID 0000.0001)                   F
(PID.TID 0000.0001)     ;
(PID.TID 0000.0001) selectCoriMap = /* Coriolis Map options (0,1,2,3)*/
(PID.TID 0000.0001)                       2
(PID.TID 0000.0001)     0= f-Plane ; 1= Beta-Plane ; 2= Spherical ; 3= read from file
(PID.TID 0000.0001)     ;
(PID.TID 0000.0001) use3dCoriolis = /* 3-D Coriolis on/off flag */
(PID.TID 0000.0001)                   F
(PID.TID 0000.0001)     ;
(PID.TID 0000.0001) useCoriolis =  /* Coriolis on/off flag */
(PID.TID 0000.0001)                   T
(PID.TID 0000.0001)     ;
(PID.TID 0000.0001) useCDscheme =  /* CD scheme on/off flag */
(PID.TID 0000.0001)                   F
(PID.TID 0000.0001)     ;
(PID.TID 0000.0001) useEnergyConservingCoriolis= /* Flx-Form Coriolis scheme flag */
(PID.TID 0000.0001)                   F
(PID.TID 0000.0001)     ;
(PID.TID 0000.0001) useJamartWetPoints= /* Coriolis WetPoints method flag */
(PID.TID 0000.0001)                   F
(PID.TID 0000.0001)     ;
(PID.TID 0000.0001) useJamartMomAdv= /* V.I Non-linear terms Jamart flag */
(PID.TID 0000.0001)                   F
(PID.TID 0000.0001)     ;
(PID.TID 0000.0001) useAbsVorticity= /* V.I Works with f+zeta in Coriolis */
(PID.TID 0000.0001)                   F
(PID.TID 0000.0001)     ;
(PID.TID 0000.0001) selectVortScheme= /* V.I Scheme selector for Vorticity-Term */
(PID.TID 0000.0001)                       1
(PID.TID 0000.0001)    = 0 : enstrophy (Shallow-Water Eq.) conserving scheme by Sadourny, JAS 75
(PID.TID 0000.0001)    = 1 : same as 0 with modified hFac
(PID.TID 0000.0001)    = 2 : energy conserving scheme (used by Sadourny in JAS 75 paper)
(PID.TID 0000.0001)    = 3 : energy (general) and enstrophy (2D, nonDiv.) conserving scheme
(PID.TID 0000.0001)          from Sadourny (Burridge & Haseler, ECMWF Rep.4, 1977)
(PID.TID 0000.0001)     ;
(PID.TID 0000.0001) upwindVorticity= /* V.I Upwind bias vorticity flag */
(PID.TID 0000.0001)                   F
(PID.TID 0000.0001)     ;
(PID.TID 0000.0001) highOrderVorticity= /* V.I High order vort. advect. flag */
(PID.TID 0000.0001)                   F
(PID.TID 0000.0001)     ;
(PID.TID 0000.0001) upwindShear= /* V.I Upwind vertical Shear advection flag */
(PID.TID 0000.0001)                   F
(PID.TID 0000.0001)     ;
(PID.TID 0000.0001) selectKEscheme= /* V.I Kinetic Energy scheme selector */
(PID.TID 0000.0001)                       0
(PID.TID 0000.0001)     ;
(PID.TID 0000.0001) momForcing =  /* Momentum forcing on/off flag */
(PID.TID 0000.0001)                   T
(PID.TID 0000.0001)     ;
(PID.TID 0000.0001) momPressureForcing =  /* Momentum pressure term on/off flag */
(PID.TID 0000.0001)                   T
(PID.TID 0000.0001)     ;
(PID.TID 0000.0001) implicitIntGravWave= /* Implicit Internal Gravity Wave flag */
(PID.TID 0000.0001)                   F
(PID.TID 0000.0001)     ;
(PID.TID 0000.0001) staggerTimeStep =    /* Stagger time stepping on/off flag */
(PID.TID 0000.0001)                   T
(PID.TID 0000.0001)     ;
(PID.TID 0000.0001) doResetHFactors = /* reset thickness factors @ each time-step */
(PID.TID 0000.0001)                   F
(PID.TID 0000.0001)     ;
(PID.TID 0000.0001) multiDimAdvection =  /* enable/disable Multi-Dim Advection */
(PID.TID 0000.0001)                   T
(PID.TID 0000.0001)     ;
(PID.TID 0000.0001) useMultiDimAdvec =   /* Multi-Dim Advection is/is-not used */
(PID.TID 0000.0001)                   T
(PID.TID 0000.0001)     ;
(PID.TID 0000.0001) implicitDiffusion = /* Implicit Diffusion on/off flag */
(PID.TID 0000.0001)                   F
(PID.TID 0000.0001)     ;
(PID.TID 0000.0001) tempStepping =  /* Temperature equation on/off flag */
(PID.TID 0000.0001)                   T
(PID.TID 0000.0001)     ;
(PID.TID 0000.0001) tempAdvection = /* Temperature advection on/off flag */
(PID.TID 0000.0001)                   T
(PID.TID 0000.0001)     ;
(PID.TID 0000.0001) tempImplVertAdv = /* Temp. implicit vert. advection on/off */
(PID.TID 0000.0001)                   F
(PID.TID 0000.0001)     ;
(PID.TID 0000.0001) tempForcing  =  /* Temperature forcing on/off flag */
(PID.TID 0000.0001)                   T
(PID.TID 0000.0001)     ;
(PID.TID 0000.0001) doThetaClimRelax = /* apply SST relaxation on/off flag */
(PID.TID 0000.0001)                   F
(PID.TID 0000.0001)     ;
(PID.TID 0000.0001) tempIsActiveTr = /* Temp. is a dynamically Active Tracer */
(PID.TID 0000.0001)                   T
(PID.TID 0000.0001)     ;
(PID.TID 0000.0001) saltStepping =  /* Salinity equation on/off flag */
(PID.TID 0000.0001)                   T
(PID.TID 0000.0001)     ;
(PID.TID 0000.0001) saltAdvection = /* Salinity advection on/off flag */
(PID.TID 0000.0001)                   T
(PID.TID 0000.0001)     ;
(PID.TID 0000.0001) saltImplVertAdv = /* Sali. implicit vert. advection on/off */
(PID.TID 0000.0001)                   F
(PID.TID 0000.0001)     ;
(PID.TID 0000.0001) saltForcing  =  /* Salinity forcing on/off flag */
(PID.TID 0000.0001)                   T
(PID.TID 0000.0001)     ;
(PID.TID 0000.0001) doSaltClimRelax = /* apply SSS relaxation on/off flag */
(PID.TID 0000.0001)                   F
(PID.TID 0000.0001)     ;
(PID.TID 0000.0001) saltIsActiveTr = /* Salt  is a dynamically Active Tracer */
(PID.TID 0000.0001)                   F
(PID.TID 0000.0001)     ;
(PID.TID 0000.0001)  readBinaryPrec = /* Precision used for reading binary files */
(PID.TID 0000.0001)                      64
(PID.TID 0000.0001)     ;
(PID.TID 0000.0001) writeBinaryPrec = /* Precision used for writing binary files */
(PID.TID 0000.0001)                      64
(PID.TID 0000.0001)     ;
(PID.TID 0000.0001)  globalFiles = /* write "global" (=not per tile) files */
(PID.TID 0000.0001)                   T
(PID.TID 0000.0001)     ;
(PID.TID 0000.0001)  useSingleCpuIO = /* only master MPI process does I/O */
(PID.TID 0000.0001)                   F
(PID.TID 0000.0001)     ;
(PID.TID 0000.0001) /* debLev[*]  : level of debug & auxiliary message printing */
(PID.TID 0000.0001) debLevZero =  0 ; /* level of disabled aux. msg printing */
(PID.TID 0000.0001)    debLevA =  1 ; /* level of minimum  aux. msg printing */
(PID.TID 0000.0001)    debLevB =  2 ; /* level of low aux. print (report read-file opening)*/
(PID.TID 0000.0001)    debLevC =  3 ; /* level of moderate debug prt (most pkgs debug msg) */
(PID.TID 0000.0001)    debLevD =  4 ; /* level of enhanced debug prt (add DEBUG_STATS prt) */
(PID.TID 0000.0001)    debLevE =  5 ; /* level of extensive debug printing */
(PID.TID 0000.0001) debugLevel =  /* select debug printing level */
(PID.TID 0000.0001)                       2
(PID.TID 0000.0001)     ;
(PID.TID 0000.0001) //
(PID.TID 0000.0001) // Elliptic solver(s) paramters ( PARM02 in namelist )
(PID.TID 0000.0001) //
(PID.TID 0000.0001) cg2dMaxIters =   /* Upper limit on 2d con. grad iterations  */
(PID.TID 0000.0001)                     200
(PID.TID 0000.0001)     ;
(PID.TID 0000.0001) cg2dChkResFreq =   /* 2d con. grad convergence test frequency */
(PID.TID 0000.0001)                       1
(PID.TID 0000.0001)     ;
(PID.TID 0000.0001) cg2dTargetResidual =   /* 2d con. grad target residual  */
(PID.TID 0000.0001)                 1.000000000000000E-07
(PID.TID 0000.0001)     ;
(PID.TID 0000.0001) cg2dTargetResWunit =   /* CG2d target residual [W units] */
(PID.TID 0000.0001)                 1.000000000000000E-17
(PID.TID 0000.0001)     ;
(PID.TID 0000.0001) cg2dPreCondFreq =   /* Freq. for updating cg2d preconditioner */
(PID.TID 0000.0001)                       1
(PID.TID 0000.0001)     ;
(PID.TID 0000.0001) useSRCGSolver =  /* use single reduction CG solver(s) */
(PID.TID 0000.0001)                   F
(PID.TID 0000.0001)     ;
(PID.TID 0000.0001) printResidualFreq = /* Freq. for printing CG residual */
(PID.TID 0000.0001)                       0
(PID.TID 0000.0001)     ;
(PID.TID 0000.0001) //
(PID.TID 0000.0001) // Time stepping paramters ( PARM03 in namelist )
(PID.TID 0000.0001) //
(PID.TID 0000.0001) deltaTMom =   /* Momentum equation timestep ( s ) */
(PID.TID 0000.0001)                 4.500000000000000E+02
(PID.TID 0000.0001)     ;
(PID.TID 0000.0001) deltaTFreeSurf = /* FreeSurface equation timestep ( s ) */
(PID.TID 0000.0001)                 4.500000000000000E+02
(PID.TID 0000.0001)     ;
(PID.TID 0000.0001) dTtracerLev =  /* Tracer equation timestep ( s ) */
(PID.TID 0000.0001)    25 @  4.500000000000000E+02              /* K =  1: 25 */
(PID.TID 0000.0001)     ;
(PID.TID 0000.0001) deltaTClock  =   /* Model clock timestep ( s ) */
(PID.TID 0000.0001)                 4.500000000000000E+02
(PID.TID 0000.0001)     ;
(PID.TID 0000.0001) cAdjFreq =   /* Convective adjustment interval ( s ) */
(PID.TID 0000.0001)                 0.000000000000000E+00
(PID.TID 0000.0001)     ;
(PID.TID 0000.0001) momForcingOutAB = /* =1: take Momentum Forcing out of Adams-Bash. stepping */
(PID.TID 0000.0001)                       1
(PID.TID 0000.0001)     ;
(PID.TID 0000.0001) tracForcingOutAB = /* =1: take T,S,pTr Forcing out of Adams-Bash. stepping */
(PID.TID 0000.0001)                       1
(PID.TID 0000.0001)     ;
(PID.TID 0000.0001) momDissip_In_AB = /* put Dissipation Tendency in Adams-Bash. stepping */
(PID.TID 0000.0001)                   T
(PID.TID 0000.0001)     ;
(PID.TID 0000.0001) doAB_onGtGs = /* apply AB on Tendencies (rather than on T,S)*/
(PID.TID 0000.0001)                   T
(PID.TID 0000.0001)     ;
(PID.TID 0000.0001) abEps =   /* Adams-Bashforth-2 stabilizing weight */
(PID.TID 0000.0001)                 1.000000000000000E-01
(PID.TID 0000.0001)     ;
(PID.TID 0000.0001) pickupStrictlyMatch= /* stop if pickup do not strictly match */
(PID.TID 0000.0001)                   T
(PID.TID 0000.0001)     ;
(PID.TID 0000.0001) nIter0   =   /* Run starting timestep number */
(PID.TID 0000.0001)                       0
(PID.TID 0000.0001)     ;
(PID.TID 0000.0001) nTimeSteps = /* Number of timesteps */
(PID.TID 0000.0001)                      10
(PID.TID 0000.0001)     ;
(PID.TID 0000.0001) nEndIter =   /* Run ending timestep number */
(PID.TID 0000.0001)                      10
(PID.TID 0000.0001)     ;
(PID.TID 0000.0001) baseTime =   /* Model base time ( s ) */
(PID.TID 0000.0001)                 0.000000000000000E+00
(PID.TID 0000.0001)     ;
(PID.TID 0000.0001) startTime =  /* Run start time ( s ) */
(PID.TID 0000.0001)                 0.000000000000000E+00
(PID.TID 0000.0001)     ;
(PID.TID 0000.0001) endTime  =   /* Integration ending time ( s ) */
(PID.TID 0000.0001)                 4.500000000000000E+03
(PID.TID 0000.0001)     ;
(PID.TID 0000.0001) pChkPtFreq = /* Permanent restart/pickup file interval ( s ) */
(PID.TID 0000.0001)                 0.000000000000000E+00
(PID.TID 0000.0001)     ;
(PID.TID 0000.0001) chkPtFreq  = /* Rolling restart/pickup file interval ( s ) */
(PID.TID 0000.0001)                 0.000000000000000E+00
(PID.TID 0000.0001)     ;
(PID.TID 0000.0001) pickup_write_mdsio =   /* Model IO flag. */
(PID.TID 0000.0001)                   T
(PID.TID 0000.0001)     ;
(PID.TID 0000.0001) pickup_read_mdsio =   /* Model IO flag. */
(PID.TID 0000.0001)                   T
(PID.TID 0000.0001)     ;
(PID.TID 0000.0001) pickup_write_immed =   /* Model IO flag. */
(PID.TID 0000.0001)                   F
(PID.TID 0000.0001)     ;
(PID.TID 0000.0001) writePickupAtEnd =   /* Model IO flag. */
(PID.TID 0000.0001)                   T
(PID.TID 0000.0001)     ;
(PID.TID 0000.0001) dumpFreq =   /* Model state write out interval ( s ). */
(PID.TID 0000.0001)                 0.000000000000000E+00
(PID.TID 0000.0001)     ;
(PID.TID 0000.0001) dumpInitAndLast= /* write out Initial & Last iter. model state */
(PID.TID 0000.0001)                   T
(PID.TID 0000.0001)     ;
(PID.TID 0000.0001) snapshot_mdsio =   /* Model IO flag. */
(PID.TID 0000.0001)                   T
(PID.TID 0000.0001)     ;
(PID.TID 0000.0001) monitorFreq =   /* Monitor output interval ( s ). */
(PID.TID 0000.0001)                 1.000000000000000E+00
(PID.TID 0000.0001)     ;
(PID.TID 0000.0001) monitorSelect = /* select group of variables to monitor */
(PID.TID 0000.0001)                       2
(PID.TID 0000.0001)     ;
(PID.TID 0000.0001) monitor_stdio =   /* Model IO flag. */
(PID.TID 0000.0001)                   T
(PID.TID 0000.0001)     ;
(PID.TID 0000.0001) externForcingPeriod =   /* forcing period (s) */
(PID.TID 0000.0001)                 0.000000000000000E+00
(PID.TID 0000.0001)     ;
(PID.TID 0000.0001) externForcingCycle =   /* period of the cyle (s). */
(PID.TID 0000.0001)                 0.000000000000000E+00
(PID.TID 0000.0001)     ;
(PID.TID 0000.0001) tauThetaClimRelax =   /* relaxation time scale (s) */
(PID.TID 0000.0001)                 0.000000000000000E+00
(PID.TID 0000.0001)     ;
(PID.TID 0000.0001) tauSaltClimRelax =   /* relaxation time scale (s) */
(PID.TID 0000.0001)                 0.000000000000000E+00
(PID.TID 0000.0001)     ;
(PID.TID 0000.0001) latBandClimRelax =   /* max. Lat. where relaxation */
(PID.TID 0000.0001)                 1.800000000000000E+02
(PID.TID 0000.0001)     ;
(PID.TID 0000.0001) //
(PID.TID 0000.0001) // Gridding paramters ( PARM04 in namelist )
(PID.TID 0000.0001) //
(PID.TID 0000.0001) usingCartesianGrid = /* Cartesian coordinates flag ( True/False ) */
(PID.TID 0000.0001)                   F
(PID.TID 0000.0001)     ;
(PID.TID 0000.0001) usingCylindricalGrid = /* Cylindrical coordinates flag ( True/False ) */
(PID.TID 0000.0001)                   F
(PID.TID 0000.0001)     ;
(PID.TID 0000.0001) usingSphericalPolarGrid = /* Spherical coordinates flag ( True/False ) */
(PID.TID 0000.0001)                   F
(PID.TID 0000.0001)     ;
(PID.TID 0000.0001) usingCurvilinearGrid = /* Curvilinear coordinates flag ( True/False ) */
(PID.TID 0000.0001)                   T
(PID.TID 0000.0001)     ;
(PID.TID 0000.0001) selectSigmaCoord = /* Hybrid-Sigma Vert. Coordinate option */
(PID.TID 0000.0001)                       0
(PID.TID 0000.0001)     ;
(PID.TID 0000.0001) Ro_SeaLevel = /* r(1) ( units of r == Pa ) */
(PID.TID 0000.0001)                 1.000000000000000E+05
(PID.TID 0000.0001)     ;
(PID.TID 0000.0001) rSigmaBnd = /* r/sigma transition ( units of r == Pa ) */
(PID.TID 0000.0001)                 1.234567000000000E+05
(PID.TID 0000.0001)     ;
(PID.TID 0000.0001) rkSign =   /* index orientation relative to vertical coordinate */
(PID.TID 0000.0001)                -1.000000000000000E+00
(PID.TID 0000.0001)     ;
(PID.TID 0000.0001) gravitySign = /* gravity orientation relative to vertical coordinate */
(PID.TID 0000.0001)                 1.000000000000000E+00
(PID.TID 0000.0001)     ;
(PID.TID 0000.0001) mass2rUnit = /* convert mass per unit area [kg/m2] to r-units [Pa] */
(PID.TID 0000.0001)                 9.810000000000000E+00
(PID.TID 0000.0001)     ;
(PID.TID 0000.0001) rUnit2mass = /* convert r-units [Pa] to mass per unit area [kg/m2] */
(PID.TID 0000.0001)                 1.019367991845056E-01
(PID.TID 0000.0001)     ;
(PID.TID 0000.0001) drC =   /* C spacing ( units of r ) */
(PID.TID 0000.0001)                 2.000000000000000E+03,      /* K =  1 */
(PID.TID 0000.0001)    24 @  4.000000000000000E+03              /* K =  2: 25 */
(PID.TID 0000.0001)     ;
(PID.TID 0000.0001) drF =   /* W spacing ( units of r ) */
(PID.TID 0000.0001)    25 @  4.000000000000000E+03              /* K =  1: 25 */
(PID.TID 0000.0001)     ;
(PID.TID 0000.0001) radius_fromHorizGrid = /* sphere Radius of input horiz. grid */
(PID.TID 0000.0001)                 6.370000000000000E+06
(PID.TID 0000.0001)     ;
(PID.TID 0000.0001) rSphere =  /* Radius ( ignored - cartesian, m - spherical ) */
(PID.TID 0000.0001)                 6.370000000000000E+06
(PID.TID 0000.0001)     ;
(PID.TID 0000.0001) deepAtmosphere = /* Deep/Shallow Atmosphere flag (True/False) */
(PID.TID 0000.0001)                   F
(PID.TID 0000.0001)     ;
(PID.TID 0000.0001) xC =  /* xC(:,1,:,1) : P-point X coord ( deg. or m if cartesian) */
(PID.TID 0000.0001)                -4.439521994760536E+01,      /* I =  1 */
(PID.TID 0000.0001)                -4.295641272275883E+01,      /* I =  2 */
(PID.TID 0000.0001)                -4.122055553388957E+01,      /* I =  3 */
(PID.TID 0000.0001)      . . .
(PID.TID 0000.0001)                 8.070819219728060E+01,      /* I = 46 */
(PID.TID 0000.0001)                 8.439652466417766E+01,      /* I = 47 */
(PID.TID 0000.0001)                 8.812739148696656E+01,      /* I = 48 */
(PID.TID 0000.0001)                 9.187260851303344E+01,      /* I = 49 */
(PID.TID 0000.0001)                 9.560347533582234E+01,      /* I = 50 */
(PID.TID 0000.0001)                 9.929180780271940E+01,      /* I = 51 */
(PID.TID 0000.0001)      . . .
(PID.TID 0000.0001)                 1.321863035748696E+02,      /* I = 94 */
(PID.TID 0000.0001)                 1.337919453120370E+02,      /* I = 95 */
(PID.TID 0000.0001)                 1.350000000000000E+02,      /* I = 96 */
(PID.TID 0000.0001)                 1.356047800523947E+02,      /* I = 97 */
(PID.TID 0000.0001)                 1.358367907661329E+02,      /* I = 98 */
(PID.TID 0000.0001)                 1.359720382181193E+02,      /* I = 99 */
(PID.TID 0000.0001)      . . .
(PID.TID 0000.0001)                -1.336511021209287E+02,      /* I =142 */
(PID.TID 0000.0001)                -1.336469399409420E+02,      /* I =143 */
(PID.TID 0000.0001)                -1.336449032499283E+02,      /* I =144 */
(PID.TID 0000.0001)                -1.336449032499283E+02,      /* I =145 */
(PID.TID 0000.0001)                -1.336469399409420E+02,      /* I =146 */
(PID.TID 0000.0001)                -1.336511021209287E+02,      /* I =147 */
(PID.TID 0000.0001)      . . .
(PID.TID 0000.0001)                 1.378136964251304E+02,      /* I =190 */
(PID.TID 0000.0001)                 1.362080546879630E+02,      /* I =191 */
(PID.TID 0000.0001)                 1.350000000000000E+02       /* I =192 */
(PID.TID 0000.0001)     ;
(PID.TID 0000.0001) yC =  /* yC(1,:,1,:) : P-point Y coord ( deg. or m if cartesian) */
(PID.TID 0000.0001)                -3.497677942598243E+01,      /* J =  1 */
(PID.TID 0000.0001)                -3.374005967394886E+01,      /* J =  2 */
(PID.TID 0000.0001)                -3.220655175667454E+01,      /* J =  3 */
(PID.TID 0000.0001)                -3.045756348838641E+01,      /* J =  4 */
(PID.TID 0000.0001)                -2.853728129852918E+01,      /* J =  5 */
(PID.TID 0000.0001)                -2.647426640173173E+01,      /* J =  6 */
(PID.TID 0000.0001)                -2.428936657094636E+01,      /* J =  7 */
(PID.TID 0000.0001)                -2.199915808312262E+01,      /* J =  8 */
(PID.TID 0000.0001)                -1.961768597440146E+01,      /* J =  9 */
(PID.TID 0000.0001)                -1.715743888281371E+01,      /* J = 10 */
(PID.TID 0000.0001)                -1.462993396899330E+01,      /* J = 11 */
(PID.TID 0000.0001)                -1.204608340464756E+01,      /* J = 12 */
(PID.TID 0000.0001)                -9.416429130284818E+00,      /* J = 13 */
(PID.TID 0000.0001)                -6.751293662992216E+00,      /* J = 14 */
(PID.TID 0000.0001)                -4.060875511835959E+00,      /* J = 15 */
(PID.TID 0000.0001)                -1.355307764409121E+00,      /* J = 16 */
(PID.TID 0000.0001)                 1.355307764409121E+00,      /* J = 17 */
(PID.TID 0000.0001)                 4.060875511835959E+00,      /* J = 18 */
(PID.TID 0000.0001)                 6.751293662992216E+00,      /* J = 19 */
(PID.TID 0000.0001)                 9.416429130284818E+00,      /* J = 20 */
(PID.TID 0000.0001)                 1.204608340464756E+01,      /* J = 21 */
(PID.TID 0000.0001)                 1.462993396899330E+01,      /* J = 22 */
(PID.TID 0000.0001)                 1.715743888281371E+01,      /* J = 23 */
(PID.TID 0000.0001)                 1.961768597440146E+01,      /* J = 24 */
(PID.TID 0000.0001)                 2.199915808312262E+01,      /* J = 25 */
(PID.TID 0000.0001)                 2.428936657094636E+01,      /* J = 26 */
(PID.TID 0000.0001)                 2.647426640173173E+01,      /* J = 27 */
(PID.TID 0000.0001)                 2.853728129852918E+01,      /* J = 28 */
(PID.TID 0000.0001)                 3.045756348838641E+01,      /* J = 29 */
(PID.TID 0000.0001)                 3.220655175667454E+01,      /* J = 30 */
(PID.TID 0000.0001)                 3.374005967394886E+01,      /* J = 31 */
(PID.TID 0000.0001)                 3.497677942598243E+01       /* J = 32 */
(PID.TID 0000.0001)     ;
(PID.TID 0000.0001) rcoord = /* P-point R coordinate (  units of r ) */
(PID.TID 0000.0001)                 9.800000000000000E+04,      /* K =  1 */
(PID.TID 0000.0001)                 9.400000000000000E+04,      /* K =  2 */
(PID.TID 0000.0001)                 9.000000000000000E+04,      /* K =  3 */
(PID.TID 0000.0001)                 8.600000000000000E+04,      /* K =  4 */
(PID.TID 0000.0001)                 8.200000000000000E+04,      /* K =  5 */
(PID.TID 0000.0001)                 7.800000000000000E+04,      /* K =  6 */
(PID.TID 0000.0001)                 7.400000000000000E+04,      /* K =  7 */
(PID.TID 0000.0001)                 7.000000000000000E+04,      /* K =  8 */
(PID.TID 0000.0001)                 6.600000000000000E+04,      /* K =  9 */
(PID.TID 0000.0001)                 6.200000000000000E+04,      /* K = 10 */
(PID.TID 0000.0001)                 5.800000000000000E+04,      /* K = 11 */
(PID.TID 0000.0001)                 5.400000000000000E+04,      /* K = 12 */
(PID.TID 0000.0001)                 5.000000000000000E+04,      /* K = 13 */
(PID.TID 0000.0001)                 4.600000000000000E+04,      /* K = 14 */
(PID.TID 0000.0001)                 4.200000000000000E+04,      /* K = 15 */
(PID.TID 0000.0001)                 3.800000000000000E+04,      /* K = 16 */
(PID.TID 0000.0001)                 3.400000000000000E+04,      /* K = 17 */
(PID.TID 0000.0001)                 3.000000000000000E+04,      /* K = 18 */
(PID.TID 0000.0001)                 2.600000000000000E+04,      /* K = 19 */
(PID.TID 0000.0001)                 2.200000000000000E+04,      /* K = 20 */
(PID.TID 0000.0001)                 1.800000000000000E+04,      /* K = 21 */
(PID.TID 0000.0001)                 1.400000000000000E+04,      /* K = 22 */
(PID.TID 0000.0001)                 1.000000000000000E+04,      /* K = 23 */
(PID.TID 0000.0001)                 6.000000000000000E+03,      /* K = 24 */
(PID.TID 0000.0001)                 2.000000000000000E+03       /* K = 25 */
(PID.TID 0000.0001)     ;
(PID.TID 0000.0001) rF =   /* W-Interf. R coordinate (  units of r ) */
(PID.TID 0000.0001)                 1.000000000000000E+05,      /* K =  1 */
(PID.TID 0000.0001)                 9.600000000000000E+04,      /* K =  2 */
(PID.TID 0000.0001)                 9.200000000000000E+04,      /* K =  3 */
(PID.TID 0000.0001)                 8.800000000000000E+04,      /* K =  4 */
(PID.TID 0000.0001)                 8.400000000000000E+04,      /* K =  5 */
(PID.TID 0000.0001)                 8.000000000000000E+04,      /* K =  6 */
(PID.TID 0000.0001)                 7.600000000000000E+04,      /* K =  7 */
(PID.TID 0000.0001)                 7.200000000000000E+04,      /* K =  8 */
(PID.TID 0000.0001)                 6.800000000000000E+04,      /* K =  9 */
(PID.TID 0000.0001)                 6.400000000000000E+04,      /* K = 10 */
(PID.TID 0000.0001)                 6.000000000000000E+04,      /* K = 11 */
(PID.TID 0000.0001)                 5.600000000000000E+04,      /* K = 12 */
(PID.TID 0000.0001)                 5.200000000000000E+04,      /* K = 13 */
(PID.TID 0000.0001)                 4.800000000000000E+04,      /* K = 14 */
(PID.TID 0000.0001)                 4.400000000000000E+04,      /* K = 15 */
(PID.TID 0000.0001)                 4.000000000000000E+04,      /* K = 16 */
(PID.TID 0000.0001)                 3.600000000000000E+04,      /* K = 17 */
(PID.TID 0000.0001)                 3.200000000000000E+04,      /* K = 18 */
(PID.TID 0000.0001)                 2.800000000000000E+04,      /* K = 19 */
(PID.TID 0000.0001)                 2.400000000000000E+04,      /* K = 20 */
(PID.TID 0000.0001)                 2.000000000000000E+04,      /* K = 21 */
(PID.TID 0000.0001)                 1.600000000000000E+04,      /* K = 22 */
(PID.TID 0000.0001)                 1.200000000000000E+04,      /* K = 23 */
(PID.TID 0000.0001)                 8.000000000000000E+03,      /* K = 24 */
(PID.TID 0000.0001)                 4.000000000000000E+03,      /* K = 25 */
(PID.TID 0000.0001)                 0.000000000000000E+00       /* K = 26 */
(PID.TID 0000.0001)     ;
(PID.TID 0000.0001) deepFacC = /* deep-model grid factor @ cell-Center (-) */
(PID.TID 0000.0001)    25 @  1.000000000000000E+00              /* K =  1: 25 */
(PID.TID 0000.0001)     ;
(PID.TID 0000.0001) deepFacF = /* deep-model grid factor @ W-Interface (-) */
(PID.TID 0000.0001)    26 @  1.000000000000000E+00              /* K =  1: 26 */
(PID.TID 0000.0001)     ;
(PID.TID 0000.0001) rVel2wUnit = /* convert units: rVel -> wSpeed (=1 if z-coord)*/
(PID.TID 0000.0001)                 8.632031454783748E-02,      /* K =  1 */
(PID.TID 0000.0001)                 8.891950599409998E-02,      /* K =  2 */
(PID.TID 0000.0001)                 9.177276638573743E-02,      /* K =  3 */
(PID.TID 0000.0001)                 9.486156880077902E-02,      /* K =  4 */
(PID.TID 0000.0001)                 9.819911708218600E-02,      /* K =  5 */
(PID.TID 0000.0001)                 1.018188755494217E-01,      /* K =  6 */
(PID.TID 0000.0001)                 1.057785847856289E-01,      /* K =  7 */
(PID.TID 0000.0001)                 1.101284749536305E-01,      /* K =  8 */
(PID.TID 0000.0001)                 1.149296200098529E-01,      /* K =  9 */
(PID.TID 0000.0001)                 1.202570995859748E-01,      /* K = 10 */
(PID.TID 0000.0001)                 1.262043532854192E-01,      /* K = 11 */
(PID.TID 0000.0001)                 1.328892934498696E-01,      /* K = 12 */
(PID.TID 0000.0001)                 1.405563747668407E-01,      /* K = 13 */
(PID.TID 0000.0001)                 1.496663336754702E-01,      /* K = 14 */
(PID.TID 0000.0001)                 1.608665339541472E-01,      /* K = 15 */
(PID.TID 0000.0001)                 1.744219824308589E-01,      /* K = 16 */
(PID.TID 0000.0001)                 1.904816280423483E-01,      /* K = 17 */
(PID.TID 0000.0001)                 2.098399056268595E-01,      /* K = 18 */
(PID.TID 0000.0001)                 2.337435594758137E-01,      /* K = 19 */
(PID.TID 0000.0001)                 2.645977230431360E-01,      /* K = 20 */
(PID.TID 0000.0001)                 3.078624974462431E-01,      /* K = 21 */
(PID.TID 0000.0001)                 3.664722214657605E-01,      /* K = 22 */
(PID.TID 0000.0001)                 4.662278213155031E-01,      /* K = 23 */
(PID.TID 0000.0001)                 6.940692436796269E-01,      /* K = 24 */
(PID.TID 0000.0001)                 1.446919906147469E+00,      /* K = 25 */
(PID.TID 0000.0001)                 1.000000000000000E+00       /* K = 26 */
(PID.TID 0000.0001)     ;
(PID.TID 0000.0001) wUnit2rVel = /* convert units: wSpeed -> rVel (=1 if z-coord)*/
(PID.TID 0000.0001)                 1.158475852686814E+01,      /* K =  1 */
(PID.TID 0000.0001)                 1.124612635686879E+01,      /* K =  2 */
(PID.TID 0000.0001)                 1.089647876361077E+01,      /* K =  3 */
(PID.TID 0000.0001)                 1.054167681013291E+01,      /* K =  4 */
(PID.TID 0000.0001)                 1.018339094803742E+01,      /* K =  5 */
(PID.TID 0000.0001)                 9.821361654250557E+00,      /* K =  6 */
(PID.TID 0000.0001)                 9.453709387647814E+00,      /* K =  7 */
(PID.TID 0000.0001)                 9.080303712741406E+00,      /* K =  8 */
(PID.TID 0000.0001)                 8.700977171196337E+00,      /* K =  9 */
(PID.TID 0000.0001)                 8.315517366066816E+00,      /* K = 10 */
(PID.TID 0000.0001)                 7.923656941836519E+00,      /* K = 11 */
(PID.TID 0000.0001)                 7.525060703082407E+00,      /* K = 12 */
(PID.TID 0000.0001)                 7.114583039430483E+00,      /* K = 13 */
(PID.TID 0000.0001)                 6.681529342252448E+00,      /* K = 14 */
(PID.TID 0000.0001)                 6.216333350509289E+00,      /* K = 15 */
(PID.TID 0000.0001)                 5.733222304111820E+00,      /* K = 16 */
(PID.TID 0000.0001)                 5.249850131361108E+00,      /* K = 17 */
(PID.TID 0000.0001)                 4.765537789452761E+00,      /* K = 18 */
(PID.TID 0000.0001)                 4.278192743545833E+00,      /* K = 19 */
(PID.TID 0000.0001)                 3.779322015696164E+00,      /* K = 20 */
(PID.TID 0000.0001)                 3.248203364473171E+00,      /* K = 21 */
(PID.TID 0000.0001)                 2.728719781271143E+00,      /* K = 22 */
(PID.TID 0000.0001)                 2.144874145816548E+00,      /* K = 23 */
(PID.TID 0000.0001)                 1.440778436886892E+00,      /* K = 24 */
(PID.TID 0000.0001)                 6.911232582752791E-01,      /* K = 25 */
(PID.TID 0000.0001)                 1.000000000000000E+00       /* K = 26 */
(PID.TID 0000.0001)     ;
(PID.TID 0000.0001) dBdrRef = /* Vertical grad. of reference buoyancy [(m/s/r)^2] */
(PID.TID 0000.0001)                 0.000000000000000E+00,      /* K =  1 */
(PID.TID 0000.0001)                 2.215280946025877E-07,      /* K =  2 */
(PID.TID 0000.0001)                 3.044902567441624E-07,      /* K =  3 */
(PID.TID 0000.0001)                 3.143161475758084E-07,      /* K =  4 */
(PID.TID 0000.0001)                 3.249392313363968E-07,      /* K =  5 */
(PID.TID 0000.0001)                 3.364670302324201E-07,      /* K =  6 */
(PID.TID 0000.0001)                 4.362849441730092E-07,      /* K =  7 */
(PID.TID 0000.0001)                 4.534709292715327E-07,      /* K =  8 */
(PID.TID 0000.0001)                 5.668525647838574E-07,      /* K =  9 */
(PID.TID 0000.0001)                 5.919518626602822E-07,      /* K = 10 */
(PID.TID 0000.0001)                 7.232120159892767E-07,      /* K = 11 */
(PID.TID 0000.0001)                 7.597706637523999E-07,      /* K = 12 */
(PID.TID 0000.0001)                 1.373323550043842E-06,      /* K = 13 */
(PID.TID 0000.0001)                 2.666043124725941E-06,      /* K = 14 */
(PID.TID 0000.0001)                 5.029562613560286E-06,      /* K = 15 */
(PID.TID 0000.0001)                 5.522431449652174E-06,      /* K = 16 */
(PID.TID 0000.0001)                 5.954788593186936E-06,      /* K = 17 */
(PID.TID 0000.0001)                 6.478533838825983E-06,      /* K = 18 */
(PID.TID 0000.0001)                 7.128627488411452E-06,      /* K = 19 */
(PID.TID 0000.0001)                 9.951743172446996E-06,      /* K = 20 */
(PID.TID 0000.0001)                 2.041749109811024E-05,      /* K = 21 */
(PID.TID 0000.0001)                 2.663698407570550E-06,      /* K = 22 */
(PID.TID 0000.0001)                 7.641510516375233E-05,      /* K = 23 */
(PID.TID 0000.0001)                 2.511360483057355E-04,      /* K = 24 */
(PID.TID 0000.0001)                 1.169825920061163E-03       /* K = 25 */
(PID.TID 0000.0001)     ;
(PID.TID 0000.0001) rotateGrid = /* use rotated grid ( True/False ) */
(PID.TID 0000.0001)                   F
(PID.TID 0000.0001)     ;
(PID.TID 0000.0001) phiEuler = /* Euler angle, rotation about original z-coordinate [rad] */
(PID.TID 0000.0001)                 0.000000000000000E+00
(PID.TID 0000.0001)     ;
(PID.TID 0000.0001) thetaEuler = /* Euler angle, rotation about new x-coordinate [rad] */
(PID.TID 0000.0001)                 0.000000000000000E+00
(PID.TID 0000.0001)     ;
(PID.TID 0000.0001) psiEuler = /* Euler angle, rotation about new z-coordinate [rad] */
(PID.TID 0000.0001)                 0.000000000000000E+00
(PID.TID 0000.0001)     ;
(PID.TID 0000.0001) dxF =  /* dxF(:,1,:,1) ( units: m ) */
(PID.TID 0000.0001)                 1.202082051331828E+05,      /* I =  1 */
(PID.TID 0000.0001)                 1.563594089971120E+05,      /* I =  2 */
(PID.TID 0000.0001)                 1.835530058121492E+05,      /* I =  3 */
(PID.TID 0000.0001)      . . .
(PID.TID 0000.0001)                 2.978501920522794E+05,      /* I = 46 */
(PID.TID 0000.0001)                 3.000967749619962E+05,      /* I = 47 */
(PID.TID 0000.0001)                 3.012190981969055E+05,      /* I = 48 */
(PID.TID 0000.0001)                 3.012190981969055E+05,      /* I = 49 */
(PID.TID 0000.0001)                 3.000967749619962E+05,      /* I = 50 */
(PID.TID 0000.0001)                 2.978501920522794E+05,      /* I = 51 */
(PID.TID 0000.0001)      . . .
(PID.TID 0000.0001)                 1.835530058121492E+05,      /* I = 94 */
(PID.TID 0000.0001)                 1.563594089971120E+05,      /* I = 95 */
(PID.TID 0000.0001)                 1.202082051331828E+05,      /* I = 96 */
(PID.TID 0000.0001)                 1.202082051331828E+05,      /* I = 97 */
(PID.TID 0000.0001)                 1.563594089971120E+05,      /* I = 98 */
(PID.TID 0000.0001)                 1.835530058121492E+05,      /* I = 99 */
(PID.TID 0000.0001)      . . .
(PID.TID 0000.0001)                 2.978501920522794E+05,      /* I =142 */
(PID.TID 0000.0001)                 3.000967749619962E+05,      /* I =143 */
(PID.TID 0000.0001)                 3.012190981969055E+05,      /* I =144 */
(PID.TID 0000.0001)                 3.012190981969055E+05,      /* I =145 */
(PID.TID 0000.0001)                 3.000967749619962E+05,      /* I =146 */
(PID.TID 0000.0001)                 2.978501920522794E+05,      /* I =147 */
(PID.TID 0000.0001)      . . .
(PID.TID 0000.0001)                 1.835530058121492E+05,      /* I =190 */
(PID.TID 0000.0001)                 1.563594089971120E+05,      /* I =191 */
(PID.TID 0000.0001)                 1.202082051331828E+05       /* I =192 */
(PID.TID 0000.0001)     ;
(PID.TID 0000.0001) dxF =  /* dxF(1,:,1,:) ( units: m ) */
(PID.TID 0000.0001)                 1.202082051331828E+05,      /* J =  1 */
(PID.TID 0000.0001)                 1.572908084538706E+05,      /* J =  2 */
(PID.TID 0000.0001)                 1.840412227747703E+05,      /* J =  3 */
(PID.TID 0000.0001)                 2.048868197919576E+05,      /* J =  4 */
(PID.TID 0000.0001)                 2.220405216043041E+05,      /* J =  5 */
(PID.TID 0000.0001)                 2.365892017348392E+05,      /* J =  6 */
(PID.TID 0000.0001)                 2.491250781852558E+05,      /* J =  7 */
(PID.TID 0000.0001)                 2.599949918261881E+05,      /* J =  8 */
(PID.TID 0000.0001)                 2.694110134598581E+05,      /* J =  9 */
(PID.TID 0000.0001)                 2.775055554645015E+05,      /* J = 10 */
(PID.TID 0000.0001)                 2.843615645344775E+05,      /* J = 11 */
(PID.TID 0000.0001)                 2.900303768613599E+05,      /* J = 12 */
(PID.TID 0000.0001)                 2.945429307892709E+05,      /* J = 13 */
(PID.TID 0000.0001)                 2.979171143158405E+05,      /* J = 14 */
(PID.TID 0000.0001)                 3.001626787528886E+05,      /* J = 15 */
(PID.TID 0000.0001)     2 @  3.012844832048790E+05,             /* J = 16: 17 */
(PID.TID 0000.0001)                 3.001626787528886E+05,      /* J = 18 */
(PID.TID 0000.0001)                 2.979171143158405E+05,      /* J = 19 */
(PID.TID 0000.0001)                 2.945429307892709E+05,      /* J = 20 */
(PID.TID 0000.0001)                 2.900303768613599E+05,      /* J = 21 */
(PID.TID 0000.0001)                 2.843615645344775E+05,      /* J = 22 */
(PID.TID 0000.0001)                 2.775055554645015E+05,      /* J = 23 */
(PID.TID 0000.0001)                 2.694110134598581E+05,      /* J = 24 */
(PID.TID 0000.0001)                 2.599949918261881E+05,      /* J = 25 */
(PID.TID 0000.0001)                 2.491250781852558E+05,      /* J = 26 */
(PID.TID 0000.0001)                 2.365892017348392E+05,      /* J = 27 */
(PID.TID 0000.0001)                 2.220405216043041E+05,      /* J = 28 */
(PID.TID 0000.0001)                 2.048868197919576E+05,      /* J = 29 */
(PID.TID 0000.0001)                 1.840412227747703E+05,      /* J = 30 */
(PID.TID 0000.0001)                 1.572908084538706E+05,      /* J = 31 */
(PID.TID 0000.0001)                 1.202082051331828E+05       /* J = 32 */
(PID.TID 0000.0001)     ;
(PID.TID 0000.0001) dyF =  /* dyF(:,1,:,1) ( units: m ) */
(PID.TID 0000.0001)                 1.202082051331828E+05,      /* I =  1 */
(PID.TID 0000.0001)                 1.572908084538706E+05,      /* I =  2 */
(PID.TID 0000.0001)                 1.840412227747703E+05,      /* I =  3 */
(PID.TID 0000.0001)      . . .
(PID.TID 0000.0001)                 2.979171143158405E+05,      /* I = 46 */
(PID.TID 0000.0001)                 3.001626787528886E+05,      /* I = 47 */
(PID.TID 0000.0001)                 3.012844832048790E+05,      /* I = 48 */
(PID.TID 0000.0001)                 3.012844832048790E+05,      /* I = 49 */
(PID.TID 0000.0001)                 3.001626787528886E+05,      /* I = 50 */
(PID.TID 0000.0001)                 2.979171143158405E+05,      /* I = 51 */
(PID.TID 0000.0001)      . . .
(PID.TID 0000.0001)                 1.840412227747703E+05,      /* I = 94 */
(PID.TID 0000.0001)                 1.572908084538706E+05,      /* I = 95 */
(PID.TID 0000.0001)                 1.202082051331828E+05,      /* I = 96 */
(PID.TID 0000.0001)                 1.202082051331828E+05,      /* I = 97 */
(PID.TID 0000.0001)                 1.572908084538706E+05,      /* I = 98 */
(PID.TID 0000.0001)                 1.840412227747703E+05,      /* I = 99 */
(PID.TID 0000.0001)      . . .
(PID.TID 0000.0001)                 2.979171143158405E+05,      /* I =142 */
(PID.TID 0000.0001)                 3.001626787528886E+05,      /* I =143 */
(PID.TID 0000.0001)                 3.012844832048790E+05,      /* I =144 */
(PID.TID 0000.0001)                 3.012844832048790E+05,      /* I =145 */
(PID.TID 0000.0001)                 3.001626787528886E+05,      /* I =146 */
(PID.TID 0000.0001)                 2.979171143158405E+05,      /* I =147 */
(PID.TID 0000.0001)      . . .
(PID.TID 0000.0001)                 1.840412227747703E+05,      /* I =190 */
(PID.TID 0000.0001)                 1.572908084538706E+05,      /* I =191 */
(PID.TID 0000.0001)                 1.202082051331828E+05       /* I =192 */
(PID.TID 0000.0001)     ;
(PID.TID 0000.0001) dyF =  /* dyF(1,:,1,:) ( units: m ) */
(PID.TID 0000.0001)                 1.202082051331828E+05,      /* J =  1 */
(PID.TID 0000.0001)                 1.563594089971120E+05,      /* J =  2 */
(PID.TID 0000.0001)                 1.835530058121492E+05,      /* J =  3 */
(PID.TID 0000.0001)                 2.045883481718707E+05,      /* J =  4 */
(PID.TID 0000.0001)                 2.218350349844185E+05,      /* J =  5 */
(PID.TID 0000.0001)                 2.364352994647058E+05,      /* J =  6 */
(PID.TID 0000.0001)                 2.490022710862746E+05,      /* J =  7 */
(PID.TID 0000.0001)                 2.598919724358304E+05,      /* J =  8 */
(PID.TID 0000.0001)                 2.693210245495156E+05,      /* J =  9 */
(PID.TID 0000.0001)                 2.774243179696503E+05,      /* J = 10 */
(PID.TID 0000.0001)                 2.842862532064524E+05,      /* J = 11 */
(PID.TID 0000.0001)                 2.899590699694043E+05,      /* J = 12 */
(PID.TID 0000.0001)                 2.944742915095688E+05,      /* J = 13 */
(PID.TID 0000.0001)                 2.978501920522794E+05,      /* J = 14 */
(PID.TID 0000.0001)                 3.000967749619962E+05,      /* J = 15 */
(PID.TID 0000.0001)     2 @  3.012190981969055E+05,             /* J = 16: 17 */
(PID.TID 0000.0001)                 3.000967749619962E+05,      /* J = 18 */
(PID.TID 0000.0001)                 2.978501920522794E+05,      /* J = 19 */
(PID.TID 0000.0001)                 2.944742915095688E+05,      /* J = 20 */
(PID.TID 0000.0001)                 2.899590699694043E+05,      /* J = 21 */
(PID.TID 0000.0001)                 2.842862532064524E+05,      /* J = 22 */
(PID.TID 0000.0001)                 2.774243179696503E+05,      /* J = 23 */
(PID.TID 0000.0001)                 2.693210245495156E+05,      /* J = 24 */
(PID.TID 0000.0001)                 2.598919724358304E+05,      /* J = 25 */
(PID.TID 0000.0001)                 2.490022710862746E+05,      /* J = 26 */
(PID.TID 0000.0001)                 2.364352994647058E+05,      /* J = 27 */
(PID.TID 0000.0001)                 2.218350349844185E+05,      /* J = 28 */
(PID.TID 0000.0001)                 2.045883481718707E+05,      /* J = 29 */
(PID.TID 0000.0001)                 1.835530058121492E+05,      /* J = 30 */
(PID.TID 0000.0001)                 1.563594089971120E+05,      /* J = 31 */
(PID.TID 0000.0001)                 1.202082051331828E+05       /* J = 32 */
(PID.TID 0000.0001)     ;
(PID.TID 0000.0001) dxG =  /* dxG(:,1,:,1) ( units: m ) */
(PID.TID 0000.0001)                 1.009837800879055E+05,      /* I =  1 */
(PID.TID 0000.0001)                 1.534505834330338E+05,      /* I =  2 */
(PID.TID 0000.0001)                 1.823321598773926E+05,      /* I =  3 */
(PID.TID 0000.0001)      . . .
(PID.TID 0000.0001)                 2.977867909042096E+05,      /* I = 46 */
(PID.TID 0000.0001)                 3.000380090330854E+05,      /* I = 47 */
(PID.TID 0000.0001)                 3.011625828699101E+05,      /* I = 48 */
(PID.TID 0000.0001)                 3.011625828699101E+05,      /* I = 49 */
(PID.TID 0000.0001)                 3.000380090330854E+05,      /* I = 50 */
(PID.TID 0000.0001)                 2.977867909042096E+05,      /* I = 51 */
(PID.TID 0000.0001)      . . .
(PID.TID 0000.0001)                 1.823321598773926E+05,      /* I = 94 */
(PID.TID 0000.0001)                 1.534505834330338E+05,      /* I = 95 */
(PID.TID 0000.0001)                 1.009837800879055E+05,      /* I = 96 */
(PID.TID 0000.0001)                 1.009837800879055E+05,      /* I = 97 */
(PID.TID 0000.0001)                 1.534505834330338E+05,      /* I = 98 */
(PID.TID 0000.0001)                 1.823321598773926E+05,      /* I = 99 */
(PID.TID 0000.0001)      . . .
(PID.TID 0000.0001)                 2.977867909042096E+05,      /* I =142 */
(PID.TID 0000.0001)                 3.000380090330854E+05,      /* I =143 */
(PID.TID 0000.0001)                 3.011625828699101E+05,      /* I =144 */
(PID.TID 0000.0001)                 3.011625828699101E+05,      /* I =145 */
(PID.TID 0000.0001)                 3.000380090330854E+05,      /* I =146 */
(PID.TID 0000.0001)                 2.977867909042096E+05,      /* I =147 */
(PID.TID 0000.0001)      . . .
(PID.TID 0000.0001)                 1.823321598773926E+05,      /* I =190 */
(PID.TID 0000.0001)                 1.534505834330338E+05,      /* I =191 */
(PID.TID 0000.0001)                 1.009837800879055E+05       /* I =192 */
(PID.TID 0000.0001)     ;
(PID.TID 0000.0001) dxG =  /* dxG(1,:,1,:) ( units: m ) */
(PID.TID 0000.0001)                 1.009837800879055E+05,      /* J =  1 */
(PID.TID 0000.0001)                 1.403701524205398E+05,      /* J =  2 */
(PID.TID 0000.0001)                 1.716197227386011E+05,      /* J =  3 */
(PID.TID 0000.0001)                 1.950254041626018E+05,      /* J =  4 */
(PID.TID 0000.0001)                 2.138410773065497E+05,      /* J =  5 */
(PID.TID 0000.0001)                 2.295958105911512E+05,      /* J =  6 */
(PID.TID 0000.0001)                 2.430829951739083E+05,      /* J =  7 */
(PID.TID 0000.0001)                 2.547526806712889E+05,      /* J =  8 */
(PID.TID 0000.0001)                 2.648750305193301E+05,      /* J =  9 */
(PID.TID 0000.0001)                 2.736173771018112E+05,      /* J = 10 */
(PID.TID 0000.0001)                 2.810845823202647E+05,      /* J = 11 */
(PID.TID 0000.0001)                 2.873420591008078E+05,      /* J = 12 */
(PID.TID 0000.0001)                 2.924298293668651E+05,      /* J = 13 */
(PID.TID 0000.0001)                 2.963715635865306E+05,      /* J = 14 */
(PID.TID 0000.0001)                 2.991805843171258E+05,      /* J = 15 */
(PID.TID 0000.0001)                 3.008638765647886E+05,      /* J = 16 */
(PID.TID 0000.0001)                 3.014246674484008E+05,      /* J = 17 */
(PID.TID 0000.0001)                 3.008638765647886E+05,      /* J = 18 */
(PID.TID 0000.0001)                 2.991805843171258E+05,      /* J = 19 */
(PID.TID 0000.0001)                 2.963715635865306E+05,      /* J = 20 */
(PID.TID 0000.0001)                 2.924298293668651E+05,      /* J = 21 */
(PID.TID 0000.0001)                 2.873420591008078E+05,      /* J = 22 */
(PID.TID 0000.0001)                 2.810845823202647E+05,      /* J = 23 */
(PID.TID 0000.0001)                 2.736173771018112E+05,      /* J = 24 */
(PID.TID 0000.0001)                 2.648750305193301E+05,      /* J = 25 */
(PID.TID 0000.0001)                 2.547526806712889E+05,      /* J = 26 */
(PID.TID 0000.0001)                 2.430829951739083E+05,      /* J = 27 */
(PID.TID 0000.0001)                 2.295958105911512E+05,      /* J = 28 */
(PID.TID 0000.0001)                 2.138410773065497E+05,      /* J = 29 */
(PID.TID 0000.0001)                 1.950254041626018E+05,      /* J = 30 */
(PID.TID 0000.0001)                 1.716197227386011E+05,      /* J = 31 */
(PID.TID 0000.0001)                 1.403701524205398E+05       /* J = 32 */
(PID.TID 0000.0001)     ;
(PID.TID 0000.0001) dyG =  /* dyG(:,1,:,1) ( units: m ) */
(PID.TID 0000.0001)                 1.009837800879055E+05,      /* I =  1 */
(PID.TID 0000.0001)                 1.403701524205398E+05,      /* I =  2 */
(PID.TID 0000.0001)                 1.716197227386011E+05,      /* I =  3 */
(PID.TID 0000.0001)      . . .
(PID.TID 0000.0001)                 2.963715635865306E+05,      /* I = 46 */
(PID.TID 0000.0001)                 2.991805843171258E+05,      /* I = 47 */
(PID.TID 0000.0001)                 3.008638765647886E+05,      /* I = 48 */
(PID.TID 0000.0001)                 3.014246674484008E+05,      /* I = 49 */
(PID.TID 0000.0001)                 3.008638765647886E+05,      /* I = 50 */
(PID.TID 0000.0001)                 2.991805843171258E+05,      /* I = 51 */
(PID.TID 0000.0001)      . . .
(PID.TID 0000.0001)                 1.950254041626018E+05,      /* I = 94 */
(PID.TID 0000.0001)                 1.716197227386011E+05,      /* I = 95 */
(PID.TID 0000.0001)                 1.403701524205398E+05,      /* I = 96 */
(PID.TID 0000.0001)                 1.009837800879055E+05,      /* I = 97 */
(PID.TID 0000.0001)                 1.403701524205398E+05,      /* I = 98 */
(PID.TID 0000.0001)                 1.716197227386011E+05,      /* I = 99 */
(PID.TID 0000.0001)      . . .
(PID.TID 0000.0001)                 2.963715635865306E+05,      /* I =142 */
(PID.TID 0000.0001)                 2.991805843171258E+05,      /* I =143 */
(PID.TID 0000.0001)                 3.008638765647886E+05,      /* I =144 */
(PID.TID 0000.0001)                 3.014246674484008E+05,      /* I =145 */
(PID.TID 0000.0001)                 3.008638765647886E+05,      /* I =146 */
(PID.TID 0000.0001)                 2.991805843171258E+05,      /* I =147 */
(PID.TID 0000.0001)      . . .
(PID.TID 0000.0001)                 1.950254041626018E+05,      /* I =190 */
(PID.TID 0000.0001)                 1.716197227386011E+05,      /* I =191 */
(PID.TID 0000.0001)                 1.403701524205398E+05       /* I =192 */
(PID.TID 0000.0001)     ;
(PID.TID 0000.0001) dyG =  /* dyG(1,:,1,:) ( units: m ) */
(PID.TID 0000.0001)                 1.009837800879055E+05,      /* J =  1 */
(PID.TID 0000.0001)                 1.534505834330338E+05,      /* J =  2 */
(PID.TID 0000.0001)                 1.823321598773926E+05,      /* J =  3 */
(PID.TID 0000.0001)                 2.038999045536999E+05,      /* J =  4 */
(PID.TID 0000.0001)                 2.213884732245467E+05,      /* J =  5 */
(PID.TID 0000.0001)                 2.361211699596122E+05,      /* J =  6 */
(PID.TID 0000.0001)                 2.487693460283865E+05,      /* J =  7 */
(PID.TID 0000.0001)                 2.597126963772147E+05,      /* J =  8 */
(PID.TID 0000.0001)                 2.691790288994575E+05,      /* J =  9 */
(PID.TID 0000.0001)                 2.773091043277394E+05,      /* J = 10 */
(PID.TID 0000.0001)                 2.841906470085516E+05,      /* J = 11 */
(PID.TID 0000.0001)                 2.898778860929753E+05,      /* J = 12 */
(PID.TID 0000.0001)                 2.944035815526416E+05,      /* J = 13 */
(PID.TID 0000.0001)                 2.977867909042096E+05,      /* J = 14 */
(PID.TID 0000.0001)                 3.000380090330854E+05,      /* J = 15 */
(PID.TID 0000.0001)     2 @  3.011625828699101E+05,             /* J = 16: 17 */
(PID.TID 0000.0001)                 3.000380090330854E+05,      /* J = 18 */
(PID.TID 0000.0001)                 2.977867909042096E+05,      /* J = 19 */
(PID.TID 0000.0001)                 2.944035815526416E+05,      /* J = 20 */
(PID.TID 0000.0001)                 2.898778860929753E+05,      /* J = 21 */
(PID.TID 0000.0001)                 2.841906470085516E+05,      /* J = 22 */
(PID.TID 0000.0001)                 2.773091043277394E+05,      /* J = 23 */
(PID.TID 0000.0001)                 2.691790288994575E+05,      /* J = 24 */
(PID.TID 0000.0001)                 2.597126963772147E+05,      /* J = 25 */
(PID.TID 0000.0001)                 2.487693460283865E+05,      /* J = 26 */
(PID.TID 0000.0001)                 2.361211699596122E+05,      /* J = 27 */
(PID.TID 0000.0001)                 2.213884732245467E+05,      /* J = 28 */
(PID.TID 0000.0001)                 2.038999045536999E+05,      /* J = 29 */
(PID.TID 0000.0001)                 1.823321598773926E+05,      /* J = 30 */
(PID.TID 0000.0001)                 1.534505834330338E+05,      /* J = 31 */
(PID.TID 0000.0001)                 1.009837800879055E+05       /* J = 32 */
(PID.TID 0000.0001)     ;
(PID.TID 0000.0001) dxC =  /* dxC(:,1,:,1) ( units: m ) */
(PID.TID 0000.0001)                 1.135373000692312E+05,      /* I =  1 */
(PID.TID 0000.0001)                 1.391343389937106E+05,      /* I =  2 */
(PID.TID 0000.0001)                 1.709574999026266E+05,      /* I =  3 */
(PID.TID 0000.0001)      . . .
(PID.TID 0000.0001)                 2.963038832565530E+05,      /* I = 46 */
(PID.TID 0000.0001)                 2.991142470004740E+05,      /* I = 47 */
(PID.TID 0000.0001)                 3.007982711627968E+05,      /* I = 48 */
(PID.TID 0000.0001)                 3.013593857228136E+05,      /* I = 49 */
(PID.TID 0000.0001)                 3.007982711627968E+05,      /* I = 50 */
(PID.TID 0000.0001)                 2.991142470004740E+05,      /* I = 51 */
(PID.TID 0000.0001)      . . .
(PID.TID 0000.0001)                 1.946503699269892E+05,      /* I = 94 */
(PID.TID 0000.0001)                 1.709574999026266E+05,      /* I = 95 */
(PID.TID 0000.0001)                 1.391343389937106E+05,      /* I = 96 */
(PID.TID 0000.0001)                 1.135373000692312E+05,      /* I = 97 */
(PID.TID 0000.0001)                 1.391343389937106E+05,      /* I = 98 */
(PID.TID 0000.0001)                 1.709574999026266E+05,      /* I = 99 */
(PID.TID 0000.0001)      . . .
(PID.TID 0000.0001)                 2.963038832565530E+05,      /* I =142 */
(PID.TID 0000.0001)                 2.991142470004740E+05,      /* I =143 */
(PID.TID 0000.0001)                 3.007982711627968E+05,      /* I =144 */
(PID.TID 0000.0001)                 3.013593857228136E+05,      /* I =145 */
(PID.TID 0000.0001)                 3.007982711627968E+05,      /* I =146 */
(PID.TID 0000.0001)                 2.991142470004740E+05,      /* I =147 */
(PID.TID 0000.0001)      . . .
(PID.TID 0000.0001)                 1.946503699269892E+05,      /* I =190 */
(PID.TID 0000.0001)                 1.709574999026266E+05,      /* I =191 */
(PID.TID 0000.0001)                 1.391343389937106E+05       /* I =192 */
(PID.TID 0000.0001)     ;
(PID.TID 0000.0001) dxC =  /* dxC(1,:,1,:) ( units: m ) */
(PID.TID 0000.0001)                 1.135373000692312E+05,      /* J =  1 */
(PID.TID 0000.0001)                 1.549545757850771E+05,      /* J =  2 */
(PID.TID 0000.0001)                 1.829777599966776E+05,      /* J =  3 */
(PID.TID 0000.0001)                 2.042717761866506E+05,      /* J =  4 */
(PID.TID 0000.0001)                 2.216367828252819E+05,      /* J =  5 */
(PID.TID 0000.0001)                 2.363029564123586E+05,      /* J =  6 */
(PID.TID 0000.0001)                 2.489113743322025E+05,      /* J =  7 */
(PID.TID 0000.0001)                 2.598293319150326E+05,      /* J =  8 */
(PID.TID 0000.0001)                 2.692787333338535E+05,      /* J =  9 */
(PID.TID 0000.0001)                 2.773972106720365E+05,      /* J = 10 */
(PID.TID 0000.0001)                 2.842706922224557E+05,      /* J = 11 */
(PID.TID 0000.0001)                 2.899523122489403E+05,      /* J = 12 */
(PID.TID 0000.0001)                 2.944741346384699E+05,      /* J = 13 */
(PID.TID 0000.0001)                 2.978547649292580E+05,      /* J = 14 */
(PID.TID 0000.0001)                 3.001044073506459E+05,      /* J = 15 */
(PID.TID 0000.0001)     2 @  3.012281885409289E+05,             /* J = 16: 17 */
(PID.TID 0000.0001)                 3.001044073506459E+05,      /* J = 18 */
(PID.TID 0000.0001)                 2.978547649292580E+05,      /* J = 19 */
(PID.TID 0000.0001)                 2.944741346384699E+05,      /* J = 20 */
(PID.TID 0000.0001)                 2.899523122489403E+05,      /* J = 21 */
(PID.TID 0000.0001)                 2.842706922224557E+05,      /* J = 22 */
(PID.TID 0000.0001)                 2.773972106720365E+05,      /* J = 23 */
(PID.TID 0000.0001)                 2.692787333338535E+05,      /* J = 24 */
(PID.TID 0000.0001)                 2.598293319150326E+05,      /* J = 25 */
(PID.TID 0000.0001)                 2.489113743322025E+05,      /* J = 26 */
(PID.TID 0000.0001)                 2.363029564123586E+05,      /* J = 27 */
(PID.TID 0000.0001)                 2.216367828252819E+05,      /* J = 28 */
(PID.TID 0000.0001)                 2.042717761866506E+05,      /* J = 29 */
(PID.TID 0000.0001)                 1.829777599966776E+05,      /* J = 30 */
(PID.TID 0000.0001)                 1.549545757850771E+05,      /* J = 31 */
(PID.TID 0000.0001)                 1.135373000692312E+05       /* J = 32 */
(PID.TID 0000.0001)     ;
(PID.TID 0000.0001) dyC =  /* dyC(:,1,:,1) ( units: m ) */
(PID.TID 0000.0001)                 1.135373000692312E+05,      /* I =  1 */
(PID.TID 0000.0001)                 1.549545757850771E+05,      /* I =  2 */
(PID.TID 0000.0001)                 1.829777599966776E+05,      /* I =  3 */
(PID.TID 0000.0001)      . . .
(PID.TID 0000.0001)                 2.978547649292580E+05,      /* I = 46 */
(PID.TID 0000.0001)                 3.001044073506459E+05,      /* I = 47 */
(PID.TID 0000.0001)                 3.012281885409289E+05,      /* I = 48 */
(PID.TID 0000.0001)                 3.012281885409289E+05,      /* I = 49 */
(PID.TID 0000.0001)                 3.001044073506459E+05,      /* I = 50 */
(PID.TID 0000.0001)                 2.978547649292580E+05,      /* I = 51 */
(PID.TID 0000.0001)      . . .
(PID.TID 0000.0001)                 1.829777599966776E+05,      /* I = 94 */
(PID.TID 0000.0001)                 1.549545757850771E+05,      /* I = 95 */
(PID.TID 0000.0001)                 1.135373000692312E+05,      /* I = 96 */
(PID.TID 0000.0001)                 1.135373000692312E+05,      /* I = 97 */
(PID.TID 0000.0001)                 1.549545757850771E+05,      /* I = 98 */
(PID.TID 0000.0001)                 1.829777599966776E+05,      /* I = 99 */
(PID.TID 0000.0001)      . . .
(PID.TID 0000.0001)                 2.978547649292580E+05,      /* I =142 */
(PID.TID 0000.0001)                 3.001044073506459E+05,      /* I =143 */
(PID.TID 0000.0001)                 3.012281885409289E+05,      /* I =144 */
(PID.TID 0000.0001)                 3.012281885409289E+05,      /* I =145 */
(PID.TID 0000.0001)                 3.001044073506459E+05,      /* I =146 */
(PID.TID 0000.0001)                 2.978547649292580E+05,      /* I =147 */
(PID.TID 0000.0001)      . . .
(PID.TID 0000.0001)                 1.829777599966776E+05,      /* I =190 */
(PID.TID 0000.0001)                 1.549545757850771E+05,      /* I =191 */
(PID.TID 0000.0001)                 1.135373000692312E+05       /* I =192 */
(PID.TID 0000.0001)     ;
(PID.TID 0000.0001) dyC =  /* dyC(1,:,1,:) ( units: m ) */
(PID.TID 0000.0001)                 1.135373000692312E+05,      /* J =  1 */
(PID.TID 0000.0001)                 1.391343389937106E+05,      /* J =  2 */
(PID.TID 0000.0001)                 1.709574999026266E+05,      /* J =  3 */
(PID.TID 0000.0001)                 1.946503699269892E+05,      /* J =  4 */
(PID.TID 0000.0001)                 2.135964483342134E+05,      /* J =  5 */
(PID.TID 0000.0001)                 2.294195678257306E+05,      /* J =  6 */
(PID.TID 0000.0001)                 2.429464709770498E+05,      /* J =  7 */
(PID.TID 0000.0001)                 2.546408290696998E+05,      /* J =  8 */
(PID.TID 0000.0001)                 2.647791839299727E+05,      /* J =  9 */
(PID.TID 0000.0001)                 2.735321911346108E+05,      /* J = 10 */
(PID.TID 0000.0001)                 2.810065951609633E+05,      /* J = 11 */
(PID.TID 0000.0001)                 2.872689479506990E+05,      /* J = 12 */
(PID.TID 0000.0001)                 2.923599955312932E+05,      /* J = 13 */
(PID.TID 0000.0001)                 2.963038832565530E+05,      /* J = 14 */
(PID.TID 0000.0001)                 2.991142470004740E+05,      /* J = 15 */
(PID.TID 0000.0001)                 3.007982711627968E+05,      /* J = 16 */
(PID.TID 0000.0001)                 3.013593857228136E+05,      /* J = 17 */
(PID.TID 0000.0001)                 3.007982711627968E+05,      /* J = 18 */
(PID.TID 0000.0001)                 2.991142470004740E+05,      /* J = 19 */
(PID.TID 0000.0001)                 2.963038832565530E+05,      /* J = 20 */
(PID.TID 0000.0001)                 2.923599955312932E+05,      /* J = 21 */
(PID.TID 0000.0001)                 2.872689479506990E+05,      /* J = 22 */
(PID.TID 0000.0001)                 2.810065951609633E+05,      /* J = 23 */
(PID.TID 0000.0001)                 2.735321911346108E+05,      /* J = 24 */
(PID.TID 0000.0001)                 2.647791839299727E+05,      /* J = 25 */
(PID.TID 0000.0001)                 2.546408290696998E+05,      /* J = 26 */
(PID.TID 0000.0001)                 2.429464709770498E+05,      /* J = 27 */
(PID.TID 0000.0001)                 2.294195678257306E+05,      /* J = 28 */
(PID.TID 0000.0001)                 2.135964483342134E+05,      /* J = 29 */
(PID.TID 0000.0001)                 1.946503699269892E+05,      /* J = 30 */
(PID.TID 0000.0001)                 1.709574999026266E+05,      /* J = 31 */
(PID.TID 0000.0001)                 1.391343389937106E+05       /* J = 32 */
(PID.TID 0000.0001)     ;
(PID.TID 0000.0001) dxV =  /* dxV(:,1,:,1) ( units: m ) */
(PID.TID 0000.0001)                 8.015229982413632E+04,      /* I =  1 */
(PID.TID 0000.0001)                 1.333130744933864E+05,      /* I =  2 */
(PID.TID 0000.0001)                 1.691744868129062E+05,      /* I =  3 */
(PID.TID 0000.0001)      . . .
(PID.TID 0000.0001)                 2.962371870847826E+05,      /* I = 46 */
(PID.TID 0000.0001)                 2.990534755671296E+05,      /* I = 47 */
(PID.TID 0000.0001)                 3.007409169495504E+05,      /* I = 48 */
(PID.TID 0000.0001)                 3.013031486919771E+05,      /* I = 49 */
(PID.TID 0000.0001)                 3.007409169495504E+05,      /* I = 50 */
(PID.TID 0000.0001)                 2.990534755671296E+05,      /* I = 51 */
(PID.TID 0000.0001)      . . .
(PID.TID 0000.0001)                 1.937548202849060E+05,      /* I = 94 */
(PID.TID 0000.0001)                 1.691744868129062E+05,      /* I = 95 */
(PID.TID 0000.0001)                 1.333130744933864E+05,      /* I = 96 */
(PID.TID 0000.0001)                 8.015229982413632E+04,      /* I = 97 */
(PID.TID 0000.0001)                 1.333130744933864E+05,      /* I = 98 */
(PID.TID 0000.0001)                 1.691744868129062E+05,      /* I = 99 */
(PID.TID 0000.0001)      . . .
(PID.TID 0000.0001)                 2.962371870847826E+05,      /* I =142 */
(PID.TID 0000.0001)                 2.990534755671296E+05,      /* I =143 */
(PID.TID 0000.0001)                 3.007409169495504E+05,      /* I =144 */
(PID.TID 0000.0001)                 3.013031486919771E+05,      /* I =145 */
(PID.TID 0000.0001)                 3.007409169495504E+05,      /* I =146 */
(PID.TID 0000.0001)                 2.990534755671296E+05,      /* I =147 */
(PID.TID 0000.0001)      . . .
(PID.TID 0000.0001)                 1.937548202849060E+05,      /* I =190 */
(PID.TID 0000.0001)                 1.691744868129062E+05,      /* I =191 */
(PID.TID 0000.0001)                 1.333130744933864E+05       /* I =192 */
(PID.TID 0000.0001)     ;
(PID.TID 0000.0001) dxV =  /* dxV(1,:,1,:) ( units: m ) */
(PID.TID 0000.0001)                 8.015229982413632E+04,      /* J =  1 */
(PID.TID 0000.0001)                 1.362652340208229E+05,      /* J =  2 */
(PID.TID 0000.0001)                 1.701080315742101E+05,      /* J =  3 */
(PID.TID 0000.0001)                 1.942331448101592E+05,      /* J =  4 */
(PID.TID 0000.0001)                 2.133486626971531E+05,      /* J =  5 */
(PID.TID 0000.0001)                 2.292584591272880E+05,      /* J =  6 */
(PID.TID 0000.0001)                 2.428369969078989E+05,      /* J =  7 */
(PID.TID 0000.0001)                 2.545652950875683E+05,      /* J =  8 */
(PID.TID 0000.0001)                 2.647274964828301E+05,      /* J =  9 */
(PID.TID 0000.0001)                 2.734980225206389E+05,      /* J = 10 */
(PID.TID 0000.0001)                 2.809856491525217E+05,      /* J = 11 */
(PID.TID 0000.0001)                 2.872580915202295E+05,      /* J = 12 */
(PID.TID 0000.0001)                 2.923567890694162E+05,      /* J = 13 */
(PID.TID 0000.0001)                 2.963063101754721E+05,      /* J = 14 */
(PID.TID 0000.0001)                 2.991205495886625E+05,      /* J = 15 */
(PID.TID 0000.0001)                 3.008068453676764E+05,      /* J = 16 */
(PID.TID 0000.0001)                 3.013686170436881E+05,      /* J = 17 */
(PID.TID 0000.0001)                 3.008068453676764E+05,      /* J = 18 */
(PID.TID 0000.0001)                 2.991205495886625E+05,      /* J = 19 */
(PID.TID 0000.0001)                 2.963063101754721E+05,      /* J = 20 */
(PID.TID 0000.0001)                 2.923567890694162E+05,      /* J = 21 */
(PID.TID 0000.0001)                 2.872580915202295E+05,      /* J = 22 */
(PID.TID 0000.0001)                 2.809856491525217E+05,      /* J = 23 */
(PID.TID 0000.0001)                 2.734980225206389E+05,      /* J = 24 */
(PID.TID 0000.0001)                 2.647274964828301E+05,      /* J = 25 */
(PID.TID 0000.0001)                 2.545652950875683E+05,      /* J = 26 */
(PID.TID 0000.0001)                 2.428369969078989E+05,      /* J = 27 */
(PID.TID 0000.0001)                 2.292584591272880E+05,      /* J = 28 */
(PID.TID 0000.0001)                 2.133486626971531E+05,      /* J = 29 */
(PID.TID 0000.0001)                 1.942331448101592E+05,      /* J = 30 */
(PID.TID 0000.0001)                 1.701080315742101E+05,      /* J = 31 */
(PID.TID 0000.0001)                 1.362652340208229E+05       /* J = 32 */
(PID.TID 0000.0001)     ;
(PID.TID 0000.0001) dyU =  /* dyU(:,1,:,1) ( units: m ) */
(PID.TID 0000.0001)                 8.015229982413632E+04,      /* I =  1 */
(PID.TID 0000.0001)                 1.362652340208229E+05,      /* I =  2 */
(PID.TID 0000.0001)                 1.701080315742101E+05,      /* I =  3 */
(PID.TID 0000.0001)      . . .
(PID.TID 0000.0001)                 2.963063101754721E+05,      /* I = 46 */
(PID.TID 0000.0001)                 2.991205495886625E+05,      /* I = 47 */
(PID.TID 0000.0001)                 3.008068453676764E+05,      /* I = 48 */
(PID.TID 0000.0001)                 3.013686170436881E+05,      /* I = 49 */
(PID.TID 0000.0001)                 3.008068453676764E+05,      /* I = 50 */
(PID.TID 0000.0001)                 2.991205495886625E+05,      /* I = 51 */
(PID.TID 0000.0001)      . . .
(PID.TID 0000.0001)                 1.942331448101592E+05,      /* I = 94 */
(PID.TID 0000.0001)                 1.701080315742101E+05,      /* I = 95 */
(PID.TID 0000.0001)                 1.362652340208229E+05,      /* I = 96 */
(PID.TID 0000.0001)                 8.015229982413632E+04,      /* I = 97 */
(PID.TID 0000.0001)                 1.362652340208229E+05,      /* I = 98 */
(PID.TID 0000.0001)                 1.701080315742101E+05,      /* I = 99 */
(PID.TID 0000.0001)      . . .
(PID.TID 0000.0001)                 2.963063101754721E+05,      /* I =142 */
(PID.TID 0000.0001)                 2.991205495886625E+05,      /* I =143 */
(PID.TID 0000.0001)                 3.008068453676764E+05,      /* I =144 */
(PID.TID 0000.0001)                 3.013686170436881E+05,      /* I =145 */
(PID.TID 0000.0001)                 3.008068453676764E+05,      /* I =146 */
(PID.TID 0000.0001)                 2.991205495886625E+05,      /* I =147 */
(PID.TID 0000.0001)      . . .
(PID.TID 0000.0001)                 1.942331448101592E+05,      /* I =190 */
(PID.TID 0000.0001)                 1.701080315742101E+05,      /* I =191 */
(PID.TID 0000.0001)                 1.362652340208229E+05       /* I =192 */
(PID.TID 0000.0001)     ;
(PID.TID 0000.0001) dyU =  /* dyU(1,:,1,:) ( units: m ) */
(PID.TID 0000.0001)                 8.015229982413632E+04,      /* J =  1 */
(PID.TID 0000.0001)                 1.333130744933864E+05,      /* J =  2 */
(PID.TID 0000.0001)                 1.691744868129062E+05,      /* J =  3 */
(PID.TID 0000.0001)                 1.937548202849060E+05,      /* J =  4 */
(PID.TID 0000.0001)                 2.130490056267208E+05,      /* J =  5 */
(PID.TID 0000.0001)                 2.290479919481738E+05,      /* J =  6 */
(PID.TID 0000.0001)                 2.426774358027003E+05,      /* J =  7 */
(PID.TID 0000.0001)                 2.544372984215561E+05,      /* J =  8 */
(PID.TID 0000.0001)                 2.646201463834826E+05,      /* J =  9 */
(PID.TID 0000.0001)                 2.734046499619031E+05,      /* J = 10 */
(PID.TID 0000.0001)                 2.809019351693761E+05,      /* J = 11 */
(PID.TID 0000.0001)                 2.871811105274442E+05,      /* J = 12 */
(PID.TID 0000.0001)                 2.922844849381675E+05,      /* J = 13 */
(PID.TID 0000.0001)                 2.962371870847826E+05,      /* J = 14 */
(PID.TID 0000.0001)                 2.990534755671296E+05,      /* J = 15 */
(PID.TID 0000.0001)                 3.007409169495504E+05,      /* J = 16 */
(PID.TID 0000.0001)                 3.013031486919771E+05,      /* J = 17 */
(PID.TID 0000.0001)                 3.007409169495504E+05,      /* J = 18 */
(PID.TID 0000.0001)                 2.990534755671296E+05,      /* J = 19 */
(PID.TID 0000.0001)                 2.962371870847826E+05,      /* J = 20 */
(PID.TID 0000.0001)                 2.922844849381675E+05,      /* J = 21 */
(PID.TID 0000.0001)                 2.871811105274442E+05,      /* J = 22 */
(PID.TID 0000.0001)                 2.809019351693761E+05,      /* J = 23 */
(PID.TID 0000.0001)                 2.734046499619031E+05,      /* J = 24 */
(PID.TID 0000.0001)                 2.646201463834826E+05,      /* J = 25 */
(PID.TID 0000.0001)                 2.544372984215561E+05,      /* J = 26 */
(PID.TID 0000.0001)                 2.426774358027003E+05,      /* J = 27 */
(PID.TID 0000.0001)                 2.290479919481738E+05,      /* J = 28 */
(PID.TID 0000.0001)                 2.130490056267208E+05,      /* J = 29 */
(PID.TID 0000.0001)                 1.937548202849060E+05,      /* J = 30 */
(PID.TID 0000.0001)                 1.691744868129062E+05,      /* J = 31 */
(PID.TID 0000.0001)                 1.333130744933864E+05       /* J = 32 */
(PID.TID 0000.0001)     ;
(PID.TID 0000.0001) rA  =  /* rA (:,1,:,1) ( units: m^2 ) */
(PID.TID 0000.0001)                 1.549786705672200E+10,      /* I =  1 */
(PID.TID 0000.0001)                 2.487202533723944E+10,      /* I =  2 */
(PID.TID 0000.0001)                 3.392265412140352E+10,      /* I =  3 */
(PID.TID 0000.0001)      . . .
(PID.TID 0000.0001)                 8.871245486529788E+10,      /* I = 46 */
(PID.TID 0000.0001)                 9.005359372079962E+10,      /* I = 47 */
(PID.TID 0000.0001)                 9.072735712796770E+10,      /* I = 48 */
(PID.TID 0000.0001)                 9.072735712796770E+10,      /* I = 49 */
(PID.TID 0000.0001)                 9.005359372079962E+10,      /* I = 50 */
(PID.TID 0000.0001)                 8.871245486529788E+10,      /* I = 51 */
(PID.TID 0000.0001)      . . .
(PID.TID 0000.0001)                 3.392265412140352E+10,      /* I = 94 */
(PID.TID 0000.0001)                 2.487202533723944E+10,      /* I = 95 */
(PID.TID 0000.0001)                 1.549786705672200E+10,      /* I = 96 */
(PID.TID 0000.0001)                 1.549786705672200E+10,      /* I = 97 */
(PID.TID 0000.0001)                 2.487202533723944E+10,      /* I = 98 */
(PID.TID 0000.0001)                 3.392265412140352E+10,      /* I = 99 */
(PID.TID 0000.0001)      . . .
(PID.TID 0000.0001)                 8.871245486529788E+10,      /* I =142 */
(PID.TID 0000.0001)                 9.005359372079962E+10,      /* I =143 */
(PID.TID 0000.0001)                 9.072735712796770E+10,      /* I =144 */
(PID.TID 0000.0001)                 9.072735712796770E+10,      /* I =145 */
(PID.TID 0000.0001)                 9.005359372079962E+10,      /* I =146 */
(PID.TID 0000.0001)                 8.871245486529788E+10,      /* I =147 */
(PID.TID 0000.0001)      . . .
(PID.TID 0000.0001)                 3.392265412140352E+10,      /* I =190 */
(PID.TID 0000.0001)                 2.487202533723944E+10,      /* I =191 */
(PID.TID 0000.0001)                 1.549786705672200E+10       /* I =192 */
(PID.TID 0000.0001)     ;
(PID.TID 0000.0001) rA  =  /* rA (1,:,1,:) ( units: m^2 ) */
(PID.TID 0000.0001)                 1.549786705672200E+10,      /* J =  1 */
(PID.TID 0000.0001)                 2.487202533723944E+10,      /* J =  2 */
(PID.TID 0000.0001)                 3.392265412140352E+10,      /* J =  3 */
(PID.TID 0000.0001)                 4.200427377313133E+10,      /* J =  4 */
(PID.TID 0000.0001)                 4.931323764668228E+10,      /* J =  5 */
(PID.TID 0000.0001)                 5.597545074899419E+10,      /* J =  6 */
(PID.TID 0000.0001)                 6.205603937791459E+10,      /* J =  7 */
(PID.TID 0000.0001)                 6.758299971934573E+10,      /* J =  8 */
(PID.TID 0000.0001)                 7.256155653843707E+10,      /* J =  9 */
(PID.TID 0000.0001)                 7.698291833687604E+10,      /* J = 10 */
(PID.TID 0000.0001)                 8.083005486272011E+10,      /* J = 11 */
(PID.TID 0000.0001)                 8.408183191745641E+10,      /* J = 12 */
(PID.TID 0000.0001)                 8.671615787312848E+10,      /* J = 13 */
(PID.TID 0000.0001)                 8.871245486529788E+10,      /* J = 14 */
(PID.TID 0000.0001)                 9.005359372079964E+10,      /* J = 15 */
(PID.TID 0000.0001)     2 @  9.072735712796770E+10,             /* J = 16: 17 */
(PID.TID 0000.0001)                 9.005359372079964E+10,      /* J = 18 */
(PID.TID 0000.0001)                 8.871245486529788E+10,      /* J = 19 */
(PID.TID 0000.0001)                 8.671615787312848E+10,      /* J = 20 */
(PID.TID 0000.0001)                 8.408183191745641E+10,      /* J = 21 */
(PID.TID 0000.0001)                 8.083005486272011E+10,      /* J = 22 */
(PID.TID 0000.0001)                 7.698291833687604E+10,      /* J = 23 */
(PID.TID 0000.0001)                 7.256155653843707E+10,      /* J = 24 */
(PID.TID 0000.0001)                 6.758299971934573E+10,      /* J = 25 */
(PID.TID 0000.0001)                 6.205603937791459E+10,      /* J = 26 */
(PID.TID 0000.0001)                 5.597545074899419E+10,      /* J = 27 */
(PID.TID 0000.0001)                 4.931323764668228E+10,      /* J = 28 */
(PID.TID 0000.0001)                 4.200427377313133E+10,      /* J = 29 */
(PID.TID 0000.0001)                 3.392265412140352E+10,      /* J = 30 */
(PID.TID 0000.0001)                 2.487202533723944E+10,      /* J = 31 */
(PID.TID 0000.0001)                 1.549786705672200E+10       /* J = 32 */
(PID.TID 0000.0001)     ;
(PID.TID 0000.0001) rAw =  /* rAw(:,1,:,1) ( units: m^2 ) */
(PID.TID 0000.0001)                 1.146542574196578E+10,      /* I =  1 */
(PID.TID 0000.0001)                 1.953030837147821E+10,      /* I =  2 */
(PID.TID 0000.0001)                 2.933967873337320E+10,      /* I =  3 */
(PID.TID 0000.0001)      . . .
(PID.TID 0000.0001)                 8.781604517750543E+10,      /* I = 46 */
(PID.TID 0000.0001)                 8.948917519517891E+10,      /* I = 47 */
(PID.TID 0000.0001)                 9.049933392602551E+10,      /* I = 48 */
(PID.TID 0000.0001)                 9.083715262395341E+10,      /* I = 49 */
(PID.TID 0000.0001)                 9.049933392602551E+10,      /* I = 50 */
(PID.TID 0000.0001)                 8.948917519517891E+10,      /* I = 51 */
(PID.TID 0000.0001)      . . .
(PID.TID 0000.0001)                 3.796176706541101E+10,      /* I = 94 */
(PID.TID 0000.0001)                 2.933967873337320E+10,      /* I = 95 */
(PID.TID 0000.0001)                 1.953030837147821E+10,      /* I = 96 */
(PID.TID 0000.0001)                 1.146542574196578E+10,      /* I = 97 */
(PID.TID 0000.0001)                 1.953030837147821E+10,      /* I = 98 */
(PID.TID 0000.0001)                 2.933967873337320E+10,      /* I = 99 */
(PID.TID 0000.0001)      . . .
(PID.TID 0000.0001)                 8.781604517750543E+10,      /* I =142 */
(PID.TID 0000.0001)                 8.948917519517891E+10,      /* I =143 */
(PID.TID 0000.0001)                 9.049933392602551E+10,      /* I =144 */
(PID.TID 0000.0001)                 9.083715262395341E+10,      /* I =145 */
(PID.TID 0000.0001)                 9.049933392602551E+10,      /* I =146 */
(PID.TID 0000.0001)                 8.948917519517891E+10,      /* I =147 */
(PID.TID 0000.0001)      . . .
(PID.TID 0000.0001)                 3.796176706541101E+10,      /* I =190 */
(PID.TID 0000.0001)                 2.933967873337320E+10,      /* I =191 */
(PID.TID 0000.0001)                 1.953030837147821E+10       /* I =192 */
(PID.TID 0000.0001)     ;
(PID.TID 0000.0001) rAw =  /* rAw(1,:,1,:) ( units: m^2 ) */
(PID.TID 0000.0001)                 1.146542574196578E+10,      /* J =  1 */
(PID.TID 0000.0001)                 2.377787005983833E+10,      /* J =  2 */
(PID.TID 0000.0001)                 3.336273018972140E+10,      /* J =  3 */
(PID.TID 0000.0001)                 4.165099566747280E+10,      /* J =  4 */
(PID.TID 0000.0001)                 4.906782896008959E+10,      /* J =  5 */
(PID.TID 0000.0001)                 5.579613053300137E+10,      /* J =  6 */
(PID.TID 0000.0001)                 6.192151981164894E+10,      /* J =  7 */
(PID.TID 0000.0001)                 6.748097638954340E+10,      /* J =  8 */
(PID.TID 0000.0001)                 7.248418794208269E+10,      /* J =  9 */
(PID.TID 0000.0001)                 7.692477203447566E+10,      /* J = 10 */
(PID.TID 0000.0001)                 8.078707194826852E+10,      /* J = 11 */
(PID.TID 0000.0001)                 8.405076334249313E+10,      /* J = 12 */
(PID.TID 0000.0001)                 8.669423991218034E+10,      /* J = 13 */
(PID.TID 0000.0001)                 8.869721460381146E+10,      /* J = 14 */
(PID.TID 0000.0001)                 9.004272888354184E+10,      /* J = 15 */
(PID.TID 0000.0001)     2 @  9.071865929421040E+10,             /* J = 16: 17 */
(PID.TID 0000.0001)                 9.004272888354184E+10,      /* J = 18 */
(PID.TID 0000.0001)                 8.869721460381146E+10,      /* J = 19 */
(PID.TID 0000.0001)                 8.669423991218034E+10,      /* J = 20 */
(PID.TID 0000.0001)                 8.405076334249313E+10,      /* J = 21 */
(PID.TID 0000.0001)                 8.078707194826852E+10,      /* J = 22 */
(PID.TID 0000.0001)                 7.692477203447566E+10,      /* J = 23 */
(PID.TID 0000.0001)                 7.248418794208269E+10,      /* J = 24 */
(PID.TID 0000.0001)                 6.748097638954340E+10,      /* J = 25 */
(PID.TID 0000.0001)                 6.192151981164894E+10,      /* J = 26 */
(PID.TID 0000.0001)                 5.579613053300137E+10,      /* J = 27 */
(PID.TID 0000.0001)                 4.906782896008959E+10,      /* J = 28 */
(PID.TID 0000.0001)                 4.165099566747280E+10,      /* J = 29 */
(PID.TID 0000.0001)                 3.336273018972140E+10,      /* J = 30 */
(PID.TID 0000.0001)                 2.377787005983833E+10,      /* J = 31 */
(PID.TID 0000.0001)                 1.146542574196578E+10       /* J = 32 */
(PID.TID 0000.0001)     ;
(PID.TID 0000.0001) rAs =  /* rAs(:,1,:,1) ( units: m^2 ) */
(PID.TID 0000.0001)                 1.146542574196578E+10,      /* I =  1 */
(PID.TID 0000.0001)                 2.377787005983833E+10,      /* I =  2 */
(PID.TID 0000.0001)                 3.336273018972140E+10,      /* I =  3 */
(PID.TID 0000.0001)      . . .
(PID.TID 0000.0001)                 8.869721460381146E+10,      /* I = 46 */
(PID.TID 0000.0001)                 9.004272888354184E+10,      /* I = 47 */
(PID.TID 0000.0001)                 9.071865929421040E+10,      /* I = 48 */
(PID.TID 0000.0001)                 9.071865929421040E+10,      /* I = 49 */
(PID.TID 0000.0001)                 9.004272888354184E+10,      /* I = 50 */
(PID.TID 0000.0001)                 8.869721460381146E+10,      /* I = 51 */
(PID.TID 0000.0001)      . . .
(PID.TID 0000.0001)                 3.336273018972140E+10,      /* I = 94 */
(PID.TID 0000.0001)                 2.377787005983833E+10,      /* I = 95 */
(PID.TID 0000.0001)                 1.146542574196578E+10,      /* I = 96 */
(PID.TID 0000.0001)                 1.146542574196578E+10,      /* I = 97 */
(PID.TID 0000.0001)                 2.377787005983833E+10,      /* I = 98 */
(PID.TID 0000.0001)                 3.336273018972140E+10,      /* I = 99 */
(PID.TID 0000.0001)      . . .
(PID.TID 0000.0001)                 8.869721460381146E+10,      /* I =142 */
(PID.TID 0000.0001)                 9.004272888354184E+10,      /* I =143 */
(PID.TID 0000.0001)                 9.071865929421040E+10,      /* I =144 */
(PID.TID 0000.0001)                 9.071865929421040E+10,      /* I =145 */
(PID.TID 0000.0001)                 9.004272888354184E+10,      /* I =146 */
(PID.TID 0000.0001)                 8.869721460381146E+10,      /* I =147 */
(PID.TID 0000.0001)      . . .
(PID.TID 0000.0001)                 3.336273018972140E+10,      /* I =190 */
(PID.TID 0000.0001)                 2.377787005983833E+10,      /* I =191 */
(PID.TID 0000.0001)                 1.146542574196578E+10       /* I =192 */
(PID.TID 0000.0001)     ;
(PID.TID 0000.0001) rAs =  /* rAs(1,:,1,:) ( units: m^2 ) */
(PID.TID 0000.0001)                 1.146542574196578E+10,      /* J =  1 */
(PID.TID 0000.0001)                 1.953030837147821E+10,      /* J =  2 */
(PID.TID 0000.0001)                 2.933967873337320E+10,      /* J =  3 */
(PID.TID 0000.0001)                 3.796176706541101E+10,      /* J =  4 */
(PID.TID 0000.0001)                 4.567569462064098E+10,      /* J =  5 */
(PID.TID 0000.0001)                 5.267377164042021E+10,      /* J =  6 */
(PID.TID 0000.0001)                 5.905615583203223E+10,      /* J =  7 */
(PID.TID 0000.0001)                 6.487043381386549E+10,      /* J =  8 */
(PID.TID 0000.0001)                 7.013339442433482E+10,      /* J =  9 */
(PID.TID 0000.0001)                 7.484316069116351E+10,      /* J = 10 */
(PID.TID 0000.0001)                 7.898662143005907E+10,      /* J = 11 */
(PID.TID 0000.0001)                 8.254445101987663E+10,      /* J = 12 */
(PID.TID 0000.0001)                 8.549478360691351E+10,      /* J = 13 */
(PID.TID 0000.0001)                 8.781604517750543E+10,      /* J = 14 */
(PID.TID 0000.0001)                 8.948917519517891E+10,      /* J = 15 */
(PID.TID 0000.0001)                 9.049933392602551E+10,      /* J = 16 */
(PID.TID 0000.0001)                 9.083715262395341E+10,      /* J = 17 */
(PID.TID 0000.0001)                 9.049933392602551E+10,      /* J = 18 */
(PID.TID 0000.0001)                 8.948917519517891E+10,      /* J = 19 */
(PID.TID 0000.0001)                 8.781604517750543E+10,      /* J = 20 */
(PID.TID 0000.0001)                 8.549478360691351E+10,      /* J = 21 */
(PID.TID 0000.0001)                 8.254445101987663E+10,      /* J = 22 */
(PID.TID 0000.0001)                 7.898662143005907E+10,      /* J = 23 */
(PID.TID 0000.0001)                 7.484316069116351E+10,      /* J = 24 */
(PID.TID 0000.0001)                 7.013339442433482E+10,      /* J = 25 */
(PID.TID 0000.0001)                 6.487043381386549E+10,      /* J = 26 */
(PID.TID 0000.0001)                 5.905615583203223E+10,      /* J = 27 */
(PID.TID 0000.0001)                 5.267377164042021E+10,      /* J = 28 */
(PID.TID 0000.0001)                 4.567569462064098E+10,      /* J = 29 */
(PID.TID 0000.0001)                 3.796176706541101E+10,      /* J = 30 */
(PID.TID 0000.0001)                 2.933967873337320E+10,      /* J = 31 */
(PID.TID 0000.0001)                 1.953030837147821E+10       /* J = 32 */
(PID.TID 0000.0001)     ;
(PID.TID 0000.0001) globalArea = /* Integrated horizontal Area (m^2) */
(PID.TID 0000.0001)                 5.098642104278459E+14
(PID.TID 0000.0001)     ;
(PID.TID 0000.0001) hasWetCSCorners = /* Domain contains CS corners (True/False) */
(PID.TID 0000.0001)                   T
(PID.TID 0000.0001)     ;
(PID.TID 0000.0001) // =======================================================
(PID.TID 0000.0001) // End of Model config. summary
(PID.TID 0000.0001) // =======================================================
(PID.TID 0000.0001) 
(PID.TID 0000.0001) == Packages configuration : Check & print summary ==
(PID.TID 0000.0001) 
(PID.TID 0000.0001) MYPACKAGE_CHECK: #define MYPACKAGE
(PID.TID 0000.0001) myPa_StaV_Cgrid = /* state vector on C-grid */
(PID.TID 0000.0001)                   T
(PID.TID 0000.0001)     ;
(PID.TID 0000.0001) myPa_Tend_Cgrid = /* vector tendency on C-grid */
(PID.TID 0000.0001)                   F
(PID.TID 0000.0001)     ;
(PID.TID 0000.0001) myPa_applyTendT = /* apply MYPA tendency to Temperature Eq.*/
(PID.TID 0000.0001)                   T
(PID.TID 0000.0001)     ;
(PID.TID 0000.0001) myPa_applyTendS = /* apply MYPA tendency to Salinity Eq.*/
(PID.TID 0000.0001)                   T
(PID.TID 0000.0001)     ;
(PID.TID 0000.0001) myPa_applyTendU = /* apply MYPA tendency to U momentum Eq.*/
(PID.TID 0000.0001)                   T
(PID.TID 0000.0001)     ;
(PID.TID 0000.0001) myPa_applyTendV = /* apply MYPA tendency to V momentum Eq.*/
(PID.TID 0000.0001)                   T
(PID.TID 0000.0001)     ;
(PID.TID 0000.0001)  myPa_index1 = /* user defined parameter */
(PID.TID 0000.0001)                       0
(PID.TID 0000.0001)     ;
(PID.TID 0000.0001)  myPa_param1 = /* user defined parameter */
(PID.TID 0000.0001)                 0.000000000000000E+00
(PID.TID 0000.0001)     ;
(PID.TID 0000.0001) myPa_string1 = /* user defined parameter */
(PID.TID 0000.0001)               ''
(PID.TID 0000.0001)     ;
(PID.TID 0000.0001) GAD_CHECK: #define ALLOW_GENERIC_ADVDIFF
(PID.TID 0000.0001) // =======================================================
(PID.TID 0000.0001) // Check Model config. (CONFIG_CHECK):
(PID.TID 0000.0001) // CONFIG_CHECK : Normal End
(PID.TID 0000.0001) // =======================================================
(PID.TID 0000.0001) 
(PID.TID 0000.0001)  MDS_READ_FIELD: opening global file: ini_theta.bin
(PID.TID 0000.0001)  MDS_READ_FIELD: opening global file: ini_specQ.bin
(PID.TID 0000.0001) Start initial hydrostatic pressure computation
(PID.TID 0000.0001) Iteration   1, RMS-difference =  4.195494080893E+03
(PID.TID 0000.0001) Iteration   2, RMS-difference =  0.000000000000E+00
(PID.TID 0000.0001) Iteration   3, RMS-difference =  0.000000000000E+00
(PID.TID 0000.0001) Iteration   4, RMS-difference =  0.000000000000E+00
(PID.TID 0000.0001) Iteration   5, RMS-difference =  0.000000000000E+00
(PID.TID 0000.0001) Iteration   6, RMS-difference =  0.000000000000E+00
(PID.TID 0000.0001) Iteration   7, RMS-difference =  0.000000000000E+00
(PID.TID 0000.0001) Iteration   8, RMS-difference =  0.000000000000E+00
(PID.TID 0000.0001) Iteration   9, RMS-difference =  0.000000000000E+00
(PID.TID 0000.0001) Iteration  10, RMS-difference =  0.000000000000E+00
(PID.TID 0000.0001) Iteration  11, RMS-difference =  0.000000000000E+00
(PID.TID 0000.0001) Iteration  12, RMS-difference =  0.000000000000E+00
(PID.TID 0000.0001) Iteration  13, RMS-difference =  0.000000000000E+00
(PID.TID 0000.0001) Iteration  14, RMS-difference =  0.000000000000E+00
(PID.TID 0000.0001) Iteration  15, RMS-difference =  0.000000000000E+00
(PID.TID 0000.0001) Initial hydrostatic pressure converged.
(PID.TID 0000.0001) 
(PID.TID 0000.0001)  write diagnostics summary to file ioUnit:      6
Iter.Nb:         0 ; Time(s):  0.0000000000000E+00
------------------------------------------------------------------------
2D/3D diagnostics: Number of lists:     2
------------------------------------------------------------------------
listId=    1 ; file name: surfDiag
 nFlds, nActive,       freq     &     phase        , nLev               
    9  |    9  |    864000.000000         0.000000 |   1
 levels:   1
 diag# | name   |   ipt  |  iMate | kLev|   count |   mate.C|           
    23 |ETAN    |      1 |      0 |   1 |       0 |
    24 |ETANSQ  |      2 |      0 |   1 |       0 |
    25 |DETADT2 |      3 |      0 |   1 |       0 |
   200 |MYPaCprc|      4 |      0 |   1 |       0 |
   201 |MYPaLprc|      5 |      0 |   1 |       0 |
   202 |MYPaflut|      6 |      0 |   1 |       0 |
   203 |MYPafluq|      7 |      0 |   1 |       0 |
   204 |MYPafluu|      8 |      0 |   1 |       0 |
   205 |MYPafluv|      9 |      0 |   1 |       0 |
------------------------------------------------------------------------
listId=    2 ; file name: dynDiag
 nFlds, nActive,       freq     &     phase        , nLev               
   13  |   13  |    864000.000000         0.000000 |  25
 levels:   1   2   3   4   5   6   7   8   9  10  11  12  13  14  15  16  17  18  19  20  21  22  23  24  25
 diag# | name   |   ipt  |  iMate | kLev|   count |   mate.C|           
    29 |UVEL    |     10 |     35 |  25 |       0 |       0 |
    30 |VVEL    |     35 |     10 |  25 |       0 |       0 |
    31 |WVEL    |     60 |      0 |  25 |       0 |
    26 |THETA   |     85 |      0 |  25 |       0 |
    27 |SALT    |    110 |      0 |  25 |       0 |
   193 |MYPadTdt|    135 |      0 |  25 |       0 |
   194 |MYPadSdt|    160 |      0 |  25 |       0 |
   195 |MYPadUdt|    185 |    210 |  25 |       0 |       0 |
   196 |MYPadVdt|    210 |    185 |  25 |       0 |       0 |
   206 |MYPadttg|    235 |      0 |  25 |       0 |
   207 |MYPadtqg|    260 |      0 |  25 |       0 |
   198 |MYPaDifT|    285 |      0 |  25 |       0 |
   199 |MYPaDifM|    310 |      0 |  25 |       0 |
------------------------------------------------------------------------
Global & Regional Statistics diagnostics: Number of lists:     2
------------------------------------------------------------------------
listId=   1 ; file name: dynStDiag
 nFlds, nActive,       freq     &     phase        |                    
   14  |   14  |     43200.000000         0.000000 |
 Regions:   0
 diag# | name   |   ipt  |  iMate |    Volume   |   mate-Vol. |         
    23 |ETAN    |      1 |      0 | 0.00000E+00 |
    26 |THETA   |      2 |      0 | 0.00000E+00 |
    27 |SALT    |     27 |      0 | 0.00000E+00 |
    37 |UE_VEL_C|     52 |      0 | 0.00000E+00 |
    38 |VN_VEL_C|     77 |      0 | 0.00000E+00 |
    31 |WVEL    |    102 |      0 | 0.00000E+00 |
   193 |MYPadTdt|    127 |      0 | 0.00000E+00 |
   194 |MYPadSdt|    152 |      0 | 0.00000E+00 |
   195 |MYPadUdt|    177 |      0 | 0.00000E+00 |
   196 |MYPadVdt|    202 |      0 | 0.00000E+00 |
   206 |MYPadttg|    227 |      0 | 0.00000E+00 |
   207 |MYPadtqg|    252 |      0 | 0.00000E+00 |
   198 |MYPaDifT|    277 |      0 | 0.00000E+00 |
   199 |MYPaDifM|    302 |      0 | 0.00000E+00 |
------------------------------------------------------------------------
listId=   2 ; file name: flxStDiag
 nFlds, nActive,       freq     &     phase        |                    
    6  |    6  |     43200.000000         0.000000 |
 Regions:   0
 diag# | name   |   ipt  |  iMate |    Volume   |   mate-Vol. |         
   202 |MYPaflut|    327 |      0 | 0.00000E+00 |
   203 |MYPafluq|    328 |      0 | 0.00000E+00 |
   204 |MYPafluu|    329 |      0 | 0.00000E+00 |
   205 |MYPafluv|    330 |      0 | 0.00000E+00 |
   200 |MYPaCprc|    331 |      0 | 0.00000E+00 |
   201 |MYPaLprc|    332 |      0 | 0.00000E+00 |
------------------------------------------------------------------------
(PID.TID 0000.0001)  MDS_READ_FIELD: opening global file: SST_cos0.bin
(PID.TID 0000.0001) // =======================================================
(PID.TID 0000.0001) // Model current state
(PID.TID 0000.0001) // =======================================================
(PID.TID 0000.0001) 
(PID.TID 0000.0001) // =======================================================
(PID.TID 0000.0001) // Begin MONITOR dynamic field statistics
(PID.TID 0000.0001) // =======================================================
(PID.TID 0000.0001) %MON time_tsnumber                =                     0
(PID.TID 0000.0001) %MON time_secondsf                =   0.0000000000000E+00
(PID.TID 0000.0001) %MON dynstat_eta_max              =   0.0000000000000E+00
(PID.TID 0000.0001) %MON dynstat_eta_min              =   0.0000000000000E+00
(PID.TID 0000.0001) %MON dynstat_eta_mean             =   0.0000000000000E+00
(PID.TID 0000.0001) %MON dynstat_eta_sd               =   0.0000000000000E+00
(PID.TID 0000.0001) %MON dynstat_eta_del2             =   0.0000000000000E+00
(PID.TID 0000.0001) %MON dynstat_uvel_max             =   0.0000000000000E+00
(PID.TID 0000.0001) %MON dynstat_uvel_min             =   0.0000000000000E+00
(PID.TID 0000.0001) %MON dynstat_uvel_mean            =   0.0000000000000E+00
(PID.TID 0000.0001) %MON dynstat_uvel_sd              =   0.0000000000000E+00
(PID.TID 0000.0001) %MON dynstat_uvel_del2            =   0.0000000000000E+00
(PID.TID 0000.0001) %MON dynstat_vvel_max             =   0.0000000000000E+00
(PID.TID 0000.0001) %MON dynstat_vvel_min             =   0.0000000000000E+00
(PID.TID 0000.0001) %MON dynstat_vvel_mean            =   0.0000000000000E+00
(PID.TID 0000.0001) %MON dynstat_vvel_sd              =   0.0000000000000E+00
(PID.TID 0000.0001) %MON dynstat_vvel_del2            =   0.0000000000000E+00
(PID.TID 0000.0001) %MON dynstat_wvel_max             =   0.0000000000000E+00
(PID.TID 0000.0001) %MON dynstat_wvel_min             =   0.0000000000000E+00
(PID.TID 0000.0001) %MON dynstat_wvel_mean            =   0.0000000000000E+00
(PID.TID 0000.0001) %MON dynstat_wvel_sd              =   0.0000000000000E+00
(PID.TID 0000.0001) %MON dynstat_wvel_del2            =   0.0000000000000E+00
(PID.TID 0000.0001) %MON dynstat_theta_max            =   6.1157588165021E+02
(PID.TID 0000.0001) %MON dynstat_theta_min            =   2.5507757435384E+02
(PID.TID 0000.0001) %MON dynstat_theta_mean           =   3.2493052782521E+02
(PID.TID 0000.0001) %MON dynstat_theta_sd             =   6.9616377986935E+01
(PID.TID 0000.0001) %MON dynstat_theta_del2           =   6.8284254093533E-04
(PID.TID 0000.0001) %MON dynstat_salt_max             =   3.8953826787381E-02
(PID.TID 0000.0001) %MON dynstat_salt_min             =   0.0000000000000E+00
(PID.TID 0000.0001) %MON dynstat_salt_mean            =   2.7394348533167E-03
(PID.TID 0000.0001) %MON dynstat_salt_sd              =   7.3633001014879E-03
(PID.TID 0000.0001) %MON dynstat_salt_del2            =   2.4085762162856E-07
(PID.TID 0000.0001) %MON advcfl_uvel_max              =   0.0000000000000E+00
(PID.TID 0000.0001) %MON advcfl_vvel_max              =   0.0000000000000E+00
(PID.TID 0000.0001) %MON advcfl_wvel_max              =   0.0000000000000E+00
(PID.TID 0000.0001) %MON advcfl_W_hf_max              =   0.0000000000000E+00
(PID.TID 0000.0001) %MON pe_b_mean                    =   0.0000000000000E+00
(PID.TID 0000.0001) %MON ke_max                       =   0.0000000000000E+00
(PID.TID 0000.0001) %MON ke_mean                      =   0.0000000000000E+00
(PID.TID 0000.0001) %MON ke_vol                       =   5.0986421042781E+19
(PID.TID 0000.0001) %MON vort_r_min                   =   0.0000000000000E+00
(PID.TID 0000.0001) %MON vort_r_max                   =   0.0000000000000E+00
(PID.TID 0000.0001) %MON vort_a_mean                  =  -2.4513551737852E-21
(PID.TID 0000.0001) %MON vort_a_sd                    =   8.4202189509968E-05
(PID.TID 0000.0001) %MON vort_p_mean                  =  -2.4513551737852E-21
(PID.TID 0000.0001) %MON vort_p_sd                    =   8.4202189509968E-05
(PID.TID 0000.0001) %MON surfExpan_theta_mean         =   0.0000000000000E+00
(PID.TID 0000.0001) %MON surfExpan_salt_mean          =   0.0000000000000E+00
(PID.TID 0000.0001) %MON surfExpan_Heat_mean          =   0.0000000000000E+00
(PID.TID 0000.0001) %MON En_Budget_T2PE_mean          =   0.0000000000000E+00
(PID.TID 0000.0001) // =======================================================
(PID.TID 0000.0001) // End MONITOR dynamic field statistics
(PID.TID 0000.0001) // =======================================================
(PID.TID 0000.0001) SURFACE_FLUX_INIT: opening data.atm_gray
(PID.TID 0000.0001)  OPEN_COPY_DATA_FILE: opening file data.atm_gray
(PID.TID 0000.0001) // =======================================================
(PID.TID 0000.0001) // Parameter file "data.atm_gray"
(PID.TID 0000.0001) // =======================================================
(PID.TID 0000.0001) >
(PID.TID 0000.0001) > &atmosphere_nml
(PID.TID 0000.0001) >    turb = .TRUE.,
(PID.TID 0000.0001) >    ldry_convection = .false.,
(PID.TID 0000.0001) >    lwet_convection = .TRUE.,
(PID.TID 0000.0001) >    do_virtual = .false.,
(PID.TID 0000.0001) >    two_stream = .true.,
(PID.TID 0000.0001) >    mixed_layer_bc = .false.,
(PID.TID 0000.0001) >    roughness_heat = 0.05,
(PID.TID 0000.0001) >    roughness_moist = 0.05,
(PID.TID 0000.0001) >    roughness_mom = 0.05,
(PID.TID 0000.0001) > /
(PID.TID 0000.0001) >
(PID.TID 0000.0001) > &radiation_nml
(PID.TID 0000.0001) ># solar_constant=
(PID.TID 0000.0001) ># del_sol=
(PID.TID 0000.0001) ># ir_tau_eq=
(PID.TID 0000.0001) ># ir_tau_pole=
(PID.TID 0000.0001) ># atm_abs=
(PID.TID 0000.0001) ># sw_diff=
(PID.TID 0000.0001) ># linear_tau=
(PID.TID 0000.0001) ># del_sw=
(PID.TID 0000.0001) ># albedo_value=
(PID.TID 0000.0001) ># window=
(PID.TID 0000.0001) ># wv_exponent=
(PID.TID 0000.0001) ># solar_exponent=
(PID.TID 0000.0001) > /
(PID.TID 0000.0001) >
(PID.TID 0000.0001) > &lscale_cond_nml
(PID.TID 0000.0001) ># hc =
(PID.TID 0000.0001) ># do_evap=
(PID.TID 0000.0001) > /
(PID.TID 0000.0001) >
(PID.TID 0000.0001) > &dargan_bettsmiller_nml
(PID.TID 0000.0001) >#  tau_bm =,
(PID.TID 0000.0001) >#  rhbm =,
(PID.TID 0000.0001) >#  do_shallower=,
(PID.TID 0000.0001) >#  do_changeqref=,
(PID.TID 0000.0001) >#  do_envsat=,
(PID.TID 0000.0001) >#  do_taucape=,
(PID.TID 0000.0001) >#  capetaubm=,
(PID.TID 0000.0001) >#  tau_min =,
(PID.TID 0000.0001) >#  do_virtual=,
(PID.TID 0000.0001) >#  do_bm_shift=,
(PID.TID 0000.0001) > /
(PID.TID 0000.0001) >
(PID.TID 0000.0001) > &surface_flux_nml
(PID.TID 0000.0001) > /
(PID.TID 0000.0001) >
(PID.TID 0000.0001) > &vert_turb_driver_nml
(PID.TID 0000.0001) >#  do_shallow_conv, do_mellor_yamada,
(PID.TID 0000.0001) >#  gust_scheme, constant_gust, use_tau,
(PID.TID 0000.0001) >#  do_molecular_diffusion
(PID.TID 0000.0001) >  do_mellor_yamada=.FALSE.,
(PID.TID 0000.0001) > /
(PID.TID 0000.0001) >
(PID.TID 0000.0001) > &diffusivity_nml
(PID.TID 0000.0001) >#  fixed_depth, depth_0, frac_inner,
(PID.TID 0000.0001) >#  rich_crit_pbl, entr_ratio, parcel_buoy,
(PID.TID 0000.0001) >#  znom, free_atm_diff, free_atm_skyhi_diff,
(PID.TID 0000.0001) >#  pbl_mcm, rich_crit_diff, mix_len, rich_prandtl,
(PID.TID 0000.0001) >#  background_m, background_t, ampns, ampns_max,
(PID.TID 0000.0001) >#  do_virtual_non_mcm
(PID.TID 0000.0001) > /
(PID.TID 0000.0001) >
(PID.TID 0000.0001) > &monin_obukhov_nml
(PID.TID 0000.0001) > /
(PID.TID 0000.0001) >
(PID.TID 0000.0001) > &my25_turb_nml
(PID.TID 0000.0001) > /
(PID.TID 0000.0001) >
(PID.TID 0000.0001) > &shallow_conv_nml
(PID.TID 0000.0001) > /
(PID.TID 0000.0001) >
(PID.TID 0000.0001) > &mixed_layer_nml
(PID.TID 0000.0001) ># evaporation, qflux_amp, depth, qflux_width
(PID.TID 0000.0001) >  depth=5000.,
(PID.TID 0000.0001) > /
(PID.TID 0000.0001) 
(PID.TID 0000.0001) SURFACE_FLUX_INIT: finished reading data.atm_gray
(PID.TID 0000.0001) MONIN_OBUKHOV_INIT: opening data.atm_gray
(PID.TID 0000.0001)  OPEN_COPY_DATA_FILE: opening file data.atm_gray
(PID.TID 0000.0001) // =======================================================
(PID.TID 0000.0001) // Parameter file "data.atm_gray"
(PID.TID 0000.0001) // =======================================================
(PID.TID 0000.0001) >
(PID.TID 0000.0001) > &atmosphere_nml
(PID.TID 0000.0001) >    turb = .TRUE.,
(PID.TID 0000.0001) >    ldry_convection = .false.,
(PID.TID 0000.0001) >    lwet_convection = .TRUE.,
(PID.TID 0000.0001) >    do_virtual = .false.,
(PID.TID 0000.0001) >    two_stream = .true.,
(PID.TID 0000.0001) >    mixed_layer_bc = .false.,
(PID.TID 0000.0001) >    roughness_heat = 0.05,
(PID.TID 0000.0001) >    roughness_moist = 0.05,
(PID.TID 0000.0001) >    roughness_mom = 0.05,
(PID.TID 0000.0001) > /
(PID.TID 0000.0001) >
(PID.TID 0000.0001) > &radiation_nml
(PID.TID 0000.0001) ># solar_constant=
(PID.TID 0000.0001) ># del_sol=
(PID.TID 0000.0001) ># ir_tau_eq=
(PID.TID 0000.0001) ># ir_tau_pole=
(PID.TID 0000.0001) ># atm_abs=
(PID.TID 0000.0001) ># sw_diff=
(PID.TID 0000.0001) ># linear_tau=
(PID.TID 0000.0001) ># del_sw=
(PID.TID 0000.0001) ># albedo_value=
(PID.TID 0000.0001) ># window=
(PID.TID 0000.0001) ># wv_exponent=
(PID.TID 0000.0001) ># solar_exponent=
(PID.TID 0000.0001) > /
(PID.TID 0000.0001) >
(PID.TID 0000.0001) > &lscale_cond_nml
(PID.TID 0000.0001) ># hc =
(PID.TID 0000.0001) ># do_evap=
(PID.TID 0000.0001) > /
(PID.TID 0000.0001) >
(PID.TID 0000.0001) > &dargan_bettsmiller_nml
(PID.TID 0000.0001) >#  tau_bm =,
(PID.TID 0000.0001) >#  rhbm =,
(PID.TID 0000.0001) >#  do_shallower=,
(PID.TID 0000.0001) >#  do_changeqref=,
(PID.TID 0000.0001) >#  do_envsat=,
(PID.TID 0000.0001) >#  do_taucape=,
(PID.TID 0000.0001) >#  capetaubm=,
(PID.TID 0000.0001) >#  tau_min =,
(PID.TID 0000.0001) >#  do_virtual=,
(PID.TID 0000.0001) >#  do_bm_shift=,
(PID.TID 0000.0001) > /
(PID.TID 0000.0001) >
(PID.TID 0000.0001) > &surface_flux_nml
(PID.TID 0000.0001) > /
(PID.TID 0000.0001) >
(PID.TID 0000.0001) > &vert_turb_driver_nml
(PID.TID 0000.0001) >#  do_shallow_conv, do_mellor_yamada,
(PID.TID 0000.0001) >#  gust_scheme, constant_gust, use_tau,
(PID.TID 0000.0001) >#  do_molecular_diffusion
(PID.TID 0000.0001) >  do_mellor_yamada=.FALSE.,
(PID.TID 0000.0001) > /
(PID.TID 0000.0001) >
(PID.TID 0000.0001) > &diffusivity_nml
(PID.TID 0000.0001) >#  fixed_depth, depth_0, frac_inner,
(PID.TID 0000.0001) >#  rich_crit_pbl, entr_ratio, parcel_buoy,
(PID.TID 0000.0001) >#  znom, free_atm_diff, free_atm_skyhi_diff,
(PID.TID 0000.0001) >#  pbl_mcm, rich_crit_diff, mix_len, rich_prandtl,
(PID.TID 0000.0001) >#  background_m, background_t, ampns, ampns_max,
(PID.TID 0000.0001) >#  do_virtual_non_mcm
(PID.TID 0000.0001) > /
(PID.TID 0000.0001) >
(PID.TID 0000.0001) > &monin_obukhov_nml
(PID.TID 0000.0001) > /
(PID.TID 0000.0001) >
(PID.TID 0000.0001) > &my25_turb_nml
(PID.TID 0000.0001) > /
(PID.TID 0000.0001) >
(PID.TID 0000.0001) > &shallow_conv_nml
(PID.TID 0000.0001) > /
(PID.TID 0000.0001) >
(PID.TID 0000.0001) > &mixed_layer_nml
(PID.TID 0000.0001) ># evaporation, qflux_amp, depth, qflux_width
(PID.TID 0000.0001) >  depth=5000.,
(PID.TID 0000.0001) > /
(PID.TID 0000.0001) 
(PID.TID 0000.0001) MONIN_OBUKHOV_INIT: finished reading data.atm_gray
(PID.TID 0000.0001) DIFFUSIVITY_INIT: opening data.atm_gray
(PID.TID 0000.0001)  OPEN_COPY_DATA_FILE: opening file data.atm_gray
(PID.TID 0000.0001) // =======================================================
(PID.TID 0000.0001) // Parameter file "data.atm_gray"
(PID.TID 0000.0001) // =======================================================
(PID.TID 0000.0001) >
(PID.TID 0000.0001) > &atmosphere_nml
(PID.TID 0000.0001) >    turb = .TRUE.,
(PID.TID 0000.0001) >    ldry_convection = .false.,
(PID.TID 0000.0001) >    lwet_convection = .TRUE.,
(PID.TID 0000.0001) >    do_virtual = .false.,
(PID.TID 0000.0001) >    two_stream = .true.,
(PID.TID 0000.0001) >    mixed_layer_bc = .false.,
(PID.TID 0000.0001) >    roughness_heat = 0.05,
(PID.TID 0000.0001) >    roughness_moist = 0.05,
(PID.TID 0000.0001) >    roughness_mom = 0.05,
(PID.TID 0000.0001) > /
(PID.TID 0000.0001) >
(PID.TID 0000.0001) > &radiation_nml
(PID.TID 0000.0001) ># solar_constant=
(PID.TID 0000.0001) ># del_sol=
(PID.TID 0000.0001) ># ir_tau_eq=
(PID.TID 0000.0001) ># ir_tau_pole=
(PID.TID 0000.0001) ># atm_abs=
(PID.TID 0000.0001) ># sw_diff=
(PID.TID 0000.0001) ># linear_tau=
(PID.TID 0000.0001) ># del_sw=
(PID.TID 0000.0001) ># albedo_value=
(PID.TID 0000.0001) ># window=
(PID.TID 0000.0001) ># wv_exponent=
(PID.TID 0000.0001) ># solar_exponent=
(PID.TID 0000.0001) > /
(PID.TID 0000.0001) >
(PID.TID 0000.0001) > &lscale_cond_nml
(PID.TID 0000.0001) ># hc =
(PID.TID 0000.0001) ># do_evap=
(PID.TID 0000.0001) > /
(PID.TID 0000.0001) >
(PID.TID 0000.0001) > &dargan_bettsmiller_nml
(PID.TID 0000.0001) >#  tau_bm =,
(PID.TID 0000.0001) >#  rhbm =,
(PID.TID 0000.0001) >#  do_shallower=,
(PID.TID 0000.0001) >#  do_changeqref=,
(PID.TID 0000.0001) >#  do_envsat=,
(PID.TID 0000.0001) >#  do_taucape=,
(PID.TID 0000.0001) >#  capetaubm=,
(PID.TID 0000.0001) >#  tau_min =,
(PID.TID 0000.0001) >#  do_virtual=,
(PID.TID 0000.0001) >#  do_bm_shift=,
(PID.TID 0000.0001) > /
(PID.TID 0000.0001) >
(PID.TID 0000.0001) > &surface_flux_nml
(PID.TID 0000.0001) > /
(PID.TID 0000.0001) >
(PID.TID 0000.0001) > &vert_turb_driver_nml
(PID.TID 0000.0001) >#  do_shallow_conv, do_mellor_yamada,
(PID.TID 0000.0001) >#  gust_scheme, constant_gust, use_tau,
(PID.TID 0000.0001) >#  do_molecular_diffusion
(PID.TID 0000.0001) >  do_mellor_yamada=.FALSE.,
(PID.TID 0000.0001) > /
(PID.TID 0000.0001) >
(PID.TID 0000.0001) > &diffusivity_nml
(PID.TID 0000.0001) >#  fixed_depth, depth_0, frac_inner,
(PID.TID 0000.0001) >#  rich_crit_pbl, entr_ratio, parcel_buoy,
(PID.TID 0000.0001) >#  znom, free_atm_diff, free_atm_skyhi_diff,
(PID.TID 0000.0001) >#  pbl_mcm, rich_crit_diff, mix_len, rich_prandtl,
(PID.TID 0000.0001) >#  background_m, background_t, ampns, ampns_max,
(PID.TID 0000.0001) >#  do_virtual_non_mcm
(PID.TID 0000.0001) > /
(PID.TID 0000.0001) >
(PID.TID 0000.0001) > &monin_obukhov_nml
(PID.TID 0000.0001) > /
(PID.TID 0000.0001) >
(PID.TID 0000.0001) > &my25_turb_nml
(PID.TID 0000.0001) > /
(PID.TID 0000.0001) >
(PID.TID 0000.0001) > &shallow_conv_nml
(PID.TID 0000.0001) > /
(PID.TID 0000.0001) >
(PID.TID 0000.0001) > &mixed_layer_nml
(PID.TID 0000.0001) ># evaporation, qflux_amp, depth, qflux_width
(PID.TID 0000.0001) >  depth=5000.,
(PID.TID 0000.0001) > /
(PID.TID 0000.0001) 
(PID.TID 0000.0001) DIFFUSIVITY_INIT: finished reading data.atm_gray
(PID.TID 0000.0001) SOLVE_FOR_PRESSURE: putPmEinXvector =    F
 cg2d: Sum(rhs),rhsMax =   1.60071067512035E-10  1.03312915511696E+02
(PID.TID 0000.0001)      cg2d_init_res =   3.66767328439670E+03
(PID.TID 0000.0001)      cg2d_iters(min,last) =      -1      14
(PID.TID 0000.0001)      cg2d_last_res =   4.02214459715386E-11
(PID.TID 0000.0001) // =======================================================
(PID.TID 0000.0001) // Begin MONITOR dynamic field statistics
(PID.TID 0000.0001) // =======================================================
(PID.TID 0000.0001) %MON time_tsnumber                =                     1
(PID.TID 0000.0001) %MON time_secondsf                =   4.5000000000000E+02
(PID.TID 0000.0001) %MON dynstat_eta_max              =   1.9750720172690E+01
(PID.TID 0000.0001) %MON dynstat_eta_min              =  -1.3272830190085E+01
(PID.TID 0000.0001) %MON dynstat_eta_mean             =   1.0041889380123E-15
(PID.TID 0000.0001) %MON dynstat_eta_sd               =   1.0775404655171E+01
(PID.TID 0000.0001) %MON dynstat_eta_del2             =   3.9296206727239E-02
(PID.TID 0000.0001) %MON dynstat_uvel_max             =   1.5596907054627E+00
(PID.TID 0000.0001) %MON dynstat_uvel_min             =  -1.5597119620513E+00
(PID.TID 0000.0001) %MON dynstat_uvel_mean            =   9.5556353161078E-08
(PID.TID 0000.0001) %MON dynstat_uvel_sd              =   5.1869603822652E-01
(PID.TID 0000.0001) %MON dynstat_uvel_del2            =   9.9807752845291E-05
(PID.TID 0000.0001) %MON dynstat_vvel_max             =   1.5596448648579E+00
(PID.TID 0000.0001) %MON dynstat_vvel_min             =  -1.5594097024991E+00
(PID.TID 0000.0001) %MON dynstat_vvel_mean            =  -7.7288331602272E-08
(PID.TID 0000.0001) %MON dynstat_vvel_sd              =   5.1869613370729E-01
(PID.TID 0000.0001) %MON dynstat_vvel_del2            =   9.9816903441922E-05
(PID.TID 0000.0001) %MON dynstat_wvel_max             =   1.6185512859687E-02
(PID.TID 0000.0001) %MON dynstat_wvel_min             =  -1.4935608910352E-02
(PID.TID 0000.0001) %MON dynstat_wvel_mean            =   4.4829863304122E-18
(PID.TID 0000.0001) %MON dynstat_wvel_sd              =   5.2313579527890E-03
(PID.TID 0000.0001) %MON dynstat_wvel_del2            =   1.1887719520198E-05
(PID.TID 0000.0001) %MON dynstat_theta_max            =   6.1160360987252E+02
(PID.TID 0000.0001) %MON dynstat_theta_min            =   2.5510242764382E+02
(PID.TID 0000.0001) %MON dynstat_theta_mean           =   3.2492239436576E+02
(PID.TID 0000.0001) %MON dynstat_theta_sd             =   6.9619265905785E+01
(PID.TID 0000.0001) %MON dynstat_theta_del2           =   6.8079241146901E-04
(PID.TID 0000.0001) %MON dynstat_salt_max             =   3.8953654469460E-02
(PID.TID 0000.0001) %MON dynstat_salt_min             =   0.0000000000000E+00
(PID.TID 0000.0001) %MON dynstat_salt_mean            =   2.7401086624378E-03
(PID.TID 0000.0001) %MON dynstat_salt_sd              =   7.3632011946716E-03
(PID.TID 0000.0001) %MON dynstat_salt_del2            =   2.4312082278928E-07
(PID.TID 0000.0001) %MON advcfl_uvel_max              =   5.0324635547765E-03
(PID.TID 0000.0001) %MON advcfl_vvel_max              =   5.0323258024247E-03
(PID.TID 0000.0001) %MON advcfl_wvel_max              =   1.8208701967148E-03
(PID.TID 0000.0001) %MON advcfl_W_hf_max              =   1.8208701967148E-03
(PID.TID 0000.0001) %MON pe_b_mean                    =   4.9160829573768E-04
(PID.TID 0000.0001) %MON ke_max                       =   1.2247007593160E+00
(PID.TID 0000.0001) %MON ke_mean                      =   2.6904562959743E-01
(PID.TID 0000.0001) %MON ke_vol                       =   5.0986421042781E+19
(PID.TID 0000.0001) %MON vort_r_min                   =  -2.2935003260841E-08
(PID.TID 0000.0001) %MON vort_r_max                   =   2.2948926602937E-08
(PID.TID 0000.0001) %MON vort_a_mean                  =   4.4124393128133E-20
(PID.TID 0000.0001) %MON vort_a_sd                    =   8.4202189511448E-05
(PID.TID 0000.0001) %MON vort_p_mean                  =   4.4124393128133E-20
(PID.TID 0000.0001) %MON vort_p_sd                    =   8.4202189511448E-05
(PID.TID 0000.0001) %MON surfExpan_theta_mean         =  -3.4461030888820E-01
(PID.TID 0000.0001) %MON surfExpan_salt_mean          =  -4.7643580550186E-05
(PID.TID 0000.0001) %MON surfExpan_Heat_mean          =  -3.0186423482355E+01
(PID.TID 0000.0001) %MON En_Budget_T2PE_mean          =   3.5766943433801E+00
(PID.TID 0000.0001) // =======================================================
(PID.TID 0000.0001) // End MONITOR dynamic field statistics
(PID.TID 0000.0001) // =======================================================
 cg2d: Sum(rhs),rhsMax =   3.49245965480804E-10  3.01483085317053E+02
(PID.TID 0000.0001)      cg2d_init_res =   7.27070566120876E+03
(PID.TID 0000.0001)      cg2d_iters(min,last) =      -1      14
(PID.TID 0000.0001)      cg2d_last_res =   6.26879524804427E-11
(PID.TID 0000.0001) // =======================================================
(PID.TID 0000.0001) // Begin MONITOR dynamic field statistics
(PID.TID 0000.0001) // =======================================================
(PID.TID 0000.0001) %MON time_tsnumber                =                     2
(PID.TID 0000.0001) %MON time_secondsf                =   9.0000000000000E+02
(PID.TID 0000.0001) %MON dynstat_eta_max              =   5.8429400626991E+01
(PID.TID 0000.0001) %MON dynstat_eta_min              =  -3.9665609464225E+01
(PID.TID 0000.0001) %MON dynstat_eta_mean             =  -1.1046078318135E-14
(PID.TID 0000.0001) %MON dynstat_eta_sd               =   3.2200185372558E+01
(PID.TID 0000.0001) %MON dynstat_eta_del2             =   8.3272511162483E-02
(PID.TID 0000.0001) %MON dynstat_uvel_max             =   3.1188724269087E+00
(PID.TID 0000.0001) %MON dynstat_uvel_min             =  -3.1188746676036E+00
(PID.TID 0000.0001) %MON dynstat_uvel_mean            =   7.7541466379415E-03
(PID.TID 0000.0001) %MON dynstat_uvel_sd              =   1.0357278927839E+00
(PID.TID 0000.0001) %MON dynstat_uvel_del2            =   1.9562340657627E-04
(PID.TID 0000.0001) %MON dynstat_vvel_max             =   3.1188451637619E+00
(PID.TID 0000.0001) %MON dynstat_vvel_min             =  -3.1186551837186E+00
(PID.TID 0000.0001) %MON dynstat_vvel_mean            =   7.7538796026379E-03
(PID.TID 0000.0001) %MON dynstat_vvel_sd              =   1.0357280394736E+00
(PID.TID 0000.0001) %MON dynstat_vvel_del2            =   1.9563391185542E-04
(PID.TID 0000.0001) %MON dynstat_wvel_max             =   3.0551804611060E-02
(PID.TID 0000.0001) %MON dynstat_wvel_min             =  -2.9559511146129E-02
(PID.TID 0000.0001) %MON dynstat_wvel_mean            =  -1.5050025537812E-17
(PID.TID 0000.0001) %MON dynstat_wvel_sd              =   1.0410533543929E-02
(PID.TID 0000.0001) %MON dynstat_wvel_del2            =   2.2000128449411E-05
(PID.TID 0000.0001) %MON dynstat_theta_max            =   6.1165386568411E+02
(PID.TID 0000.0001) %MON dynstat_theta_min            =   2.5513177105462E+02
(PID.TID 0000.0001) %MON dynstat_theta_mean           =   3.2491539217720E+02
(PID.TID 0000.0001) %MON dynstat_theta_sd             =   6.9621555092871E+01
(PID.TID 0000.0001) %MON dynstat_theta_del2           =   6.7825438064163E-04
(PID.TID 0000.0001) %MON dynstat_salt_max             =   3.8953482083277E-02
(PID.TID 0000.0001) %MON dynstat_salt_min             =   0.0000000000000E+00
(PID.TID 0000.0001) %MON dynstat_salt_mean            =   2.7407357694743E-03
(PID.TID 0000.0001) %MON dynstat_salt_sd              =   7.3630795005256E-03
(PID.TID 0000.0001) %MON dynstat_salt_del2            =   2.4621839931402E-07
(PID.TID 0000.0001) %MON advcfl_uvel_max              =   1.0391379359120E-02
(PID.TID 0000.0001) %MON advcfl_vvel_max              =   1.0391997886263E-02
(PID.TID 0000.0001) %MON advcfl_wvel_max              =   3.4370780187442E-03
(PID.TID 0000.0001) %MON advcfl_W_hf_max              =   3.4365708504271E-03
(PID.TID 0000.0001) %MON pe_b_mean                    =   4.3900429553431E-03
(PID.TID 0000.0001) %MON ke_max                       =   4.8708924287753E+00
(PID.TID 0000.0001) %MON ke_mean                      =   1.0727925445406E+00
(PID.TID 0000.0001) %MON ke_vol                       =   5.0986421042785E+19
(PID.TID 0000.0001) %MON vort_r_min                   =  -9.1664838782427E-08
(PID.TID 0000.0001) %MON vort_r_max                   =   9.1661250314298E-08
(PID.TID 0000.0001) %MON vort_a_mean                  =   1.5688673112225E-19
(PID.TID 0000.0001) %MON vort_a_sd                    =   8.4208589588815E-05
(PID.TID 0000.0001) %MON vort_p_mean                  =   1.5933808551787E-19
(PID.TID 0000.0001) %MON vort_p_sd                    =   8.4204589527441E-05
(PID.TID 0000.0001) %MON surfExpan_theta_mean         =  -6.8660156284472E-01
(PID.TID 0000.0001) %MON surfExpan_salt_mean          =  -9.4980713085726E-05
(PID.TID 0000.0001) %MON surfExpan_Heat_mean          =  -6.0150923655001E+01
(PID.TID 0000.0001) %MON En_Budget_T2PE_mean          =   7.1437106226778E+00
(PID.TID 0000.0001) // =======================================================
(PID.TID 0000.0001) // End MONITOR dynamic field statistics
(PID.TID 0000.0001) // =======================================================
 cg2d: Sum(rhs),rhsMax =   3.49245965480804E-10  5.94543058738436E+02
(PID.TID 0000.0001)      cg2d_init_res =   1.08230692333543E+04
(PID.TID 0000.0001)      cg2d_iters(min,last) =      -1      14
(PID.TID 0000.0001)      cg2d_last_res =   6.68923055981490E-11
(PID.TID 0000.0001) // =======================================================
(PID.TID 0000.0001) // Begin MONITOR dynamic field statistics
(PID.TID 0000.0001) // =======================================================
(PID.TID 0000.0001) %MON time_tsnumber                =                     3
(PID.TID 0000.0001) %MON time_secondsf                =   1.3500000000000E+03
(PID.TID 0000.0001) %MON dynstat_eta_max              =   1.1558900278891E+02
(PID.TID 0000.0001) %MON dynstat_eta_min              =  -7.9003736480149E+01
(PID.TID 0000.0001) %MON dynstat_eta_mean             =  -4.0167557520490E-15
(PID.TID 0000.0001) %MON dynstat_eta_sd               =   6.4118258488708E+01
(PID.TID 0000.0001) %MON dynstat_eta_del2             =   1.1499506000402E-01
(PID.TID 0000.0001) %MON dynstat_uvel_max             =   4.6658867869886E+00
(PID.TID 0000.0001) %MON dynstat_uvel_min             =  -4.6658795839596E+00
(PID.TID 0000.0001) %MON dynstat_uvel_mean            =   2.0300541172448E-02
(PID.TID 0000.0001) %MON dynstat_uvel_sd              =   1.5486520926566E+00
(PID.TID 0000.0001) %MON dynstat_uvel_del2            =   2.8671051083622E-04
(PID.TID 0000.0001) %MON dynstat_vvel_max             =   4.6658428372127E+00
(PID.TID 0000.0001) %MON dynstat_vvel_min             =  -4.6656332694611E+00
(PID.TID 0000.0001) %MON dynstat_vvel_mean            =   2.0300278067049E-02
(PID.TID 0000.0001) %MON dynstat_vvel_sd              =   1.5486522437913E+00
(PID.TID 0000.0001) %MON dynstat_vvel_del2            =   2.8671993271483E-04
(PID.TID 0000.0001) %MON dynstat_wvel_max             =   4.2542186858531E-02
(PID.TID 0000.0001) %MON dynstat_wvel_min             =  -4.4247570310034E-02
(PID.TID 0000.0001) %MON dynstat_wvel_mean            =   1.3448958991237E-17
(PID.TID 0000.0001) %MON dynstat_wvel_sd              =   1.5481876168713E-02
(PID.TID 0000.0001) %MON dynstat_wvel_del2            =   2.9412723374596E-05
(PID.TID 0000.0001) %MON dynstat_theta_max            =   6.1169682124388E+02
(PID.TID 0000.0001) %MON dynstat_theta_min            =   2.5516712799998E+02
(PID.TID 0000.0001) %MON dynstat_theta_mean           =   3.2490953329276E+02
(PID.TID 0000.0001) %MON dynstat_theta_sd             =   6.9622743267327E+01
(PID.TID 0000.0001) %MON dynstat_theta_del2           =   6.7722765657355E-04
(PID.TID 0000.0001) %MON dynstat_salt_max             =   3.8953309629261E-02
(PID.TID 0000.0001) %MON dynstat_salt_min             =   0.0000000000000E+00
(PID.TID 0000.0001) %MON dynstat_salt_mean            =   2.7409753964384E-03
(PID.TID 0000.0001) %MON dynstat_salt_sd              =   7.3630034311829E-03
(PID.TID 0000.0001) %MON dynstat_salt_del2            =   2.5028469442258E-07
(PID.TID 0000.0001) %MON advcfl_uvel_max              =   1.5932593093262E-02
(PID.TID 0000.0001) %MON advcfl_vvel_max              =   1.5929716693243E-02
(PID.TID 0000.0001) %MON advcfl_wvel_max              =   4.9778516598788E-03
(PID.TID 0000.0001) %MON advcfl_W_hf_max              =   4.9785706104161E-03
(PID.TID 0000.0001) %MON pe_b_mean                    =   1.7406660621843E-02
(PID.TID 0000.0001) %MON ke_max                       =   1.0876328189892E+01
(PID.TID 0000.0001) %MON ke_mean                      =   2.3987356447755E+00
(PID.TID 0000.0001) %MON ke_vol                       =   5.0986421042784E+19
(PID.TID 0000.0001) %MON vort_r_min                   =  -1.9504215035423E-07
(PID.TID 0000.0001) %MON vort_r_max                   =   1.9504581062167E-07
(PID.TID 0000.0001) %MON vort_a_mean                  =   2.0346247942417E-19
(PID.TID 0000.0001) %MON vort_a_sd                    =   8.4218962205487E-05
(PID.TID 0000.0001) %MON vort_p_mean                  =   2.0346247623779E-19
(PID.TID 0000.0001) %MON vort_p_sd                    =   8.4206979741700E-05
(PID.TID 0000.0001) %MON surfExpan_theta_mean         =  -1.0232468781171E+00
(PID.TID 0000.0001) %MON surfExpan_salt_mean          =  -1.4177833299149E-04
(PID.TID 0000.0001) %MON surfExpan_Heat_mean          =  -8.9659313938484E+01
(PID.TID 0000.0001) %MON En_Budget_T2PE_mean          =   1.0680257142350E+01
(PID.TID 0000.0001) // =======================================================
(PID.TID 0000.0001) // End MONITOR dynamic field statistics
(PID.TID 0000.0001) // =======================================================
 cg2d: Sum(rhs),rhsMax =  -8.14907252788544E-10  9.77401595905507E+02
(PID.TID 0000.0001)      cg2d_init_res =   1.43264080549909E+04
(PID.TID 0000.0001)      cg2d_iters(min,last) =      -1      14
(PID.TID 0000.0001)      cg2d_last_res =   7.29438510407556E-11
(PID.TID 0000.0001) // =======================================================
(PID.TID 0000.0001) // Begin MONITOR dynamic field statistics
(PID.TID 0000.0001) // =======================================================
(PID.TID 0000.0001) %MON time_tsnumber                =                     4
(PID.TID 0000.0001) %MON time_secondsf                =   1.8000000000000E+03
(PID.TID 0000.0001) %MON dynstat_eta_max              =   1.9055869137576E+02
(PID.TID 0000.0001) %MON dynstat_eta_min              =  -1.3108949166821E+02
(PID.TID 0000.0001) %MON dynstat_eta_mean             =   6.0251336280736E-14
(PID.TID 0000.0001) %MON dynstat_eta_sd               =   1.0636749134886E+02
(PID.TID 0000.0001) %MON dynstat_eta_del2             =   1.3491432700252E-01
(PID.TID 0000.0001) %MON dynstat_uvel_max             =   6.1997396678808E+00
(PID.TID 0000.0001) %MON dynstat_uvel_min             =  -6.1997201560381E+00
(PID.TID 0000.0001) %MON dynstat_uvel_mean            =   3.7553520014006E-02
(PID.TID 0000.0001) %MON dynstat_uvel_sd              =   2.0564671032871E+00
(PID.TID 0000.0001) %MON dynstat_uvel_del2            =   3.7430215893411E-04
(PID.TID 0000.0001) %MON dynstat_vvel_max             =   6.1996717513070E+00
(PID.TID 0000.0001) %MON dynstat_vvel_min             =  -6.1994483092874E+00
(PID.TID 0000.0001) %MON dynstat_vvel_mean            =   3.7553333456482E-02
(PID.TID 0000.0001) %MON dynstat_vvel_sd              =   2.0564672287684E+00
(PID.TID 0000.0001) %MON dynstat_vvel_del2            =   3.7431455206324E-04
(PID.TID 0000.0001) %MON dynstat_wvel_max             =   5.3147408957708E-02
(PID.TID 0000.0001) %MON dynstat_wvel_min             =  -6.2672231316441E-02
(PID.TID 0000.0001) %MON dynstat_wvel_mean            =   3.2661757550146E-17
(PID.TID 0000.0001) %MON dynstat_wvel_sd              =   2.0463607882847E-02
(PID.TID 0000.0001) %MON dynstat_wvel_del2            =   3.5828954139399E-05
(PID.TID 0000.0001) %MON dynstat_theta_max            =   6.1174061872558E+02
(PID.TID 0000.0001) %MON dynstat_theta_min            =   2.5522059769287E+02
(PID.TID 0000.0001) %MON dynstat_theta_mean           =   3.2490367394821E+02
(PID.TID 0000.0001) %MON dynstat_theta_sd             =   6.9623934826682E+01
(PID.TID 0000.0001) %MON dynstat_theta_del2           =   6.7672314164409E-04
(PID.TID 0000.0001) %MON dynstat_salt_max             =   3.8953137108279E-02
(PID.TID 0000.0001) %MON dynstat_salt_min             =   0.0000000000000E+00
(PID.TID 0000.0001) %MON dynstat_salt_mean            =   2.7411993341709E-03
(PID.TID 0000.0001) %MON dynstat_salt_sd              =   7.3628286486784E-03
(PID.TID 0000.0001) %MON dynstat_salt_del2            =   2.5492563579372E-07
(PID.TID 0000.0001) %MON advcfl_uvel_max              =   2.1464247633626E-02
(PID.TID 0000.0001) %MON advcfl_vvel_max              =   2.1461843887755E-02
(PID.TID 0000.0001) %MON advcfl_wvel_max              =   7.0506260230996E-03
(PID.TID 0000.0001) %MON advcfl_W_hf_max              =   7.0518376995860E-03
(PID.TID 0000.0001) %MON pe_b_mean                    =   4.7903788279264E-02
(PID.TID 0000.0001) %MON ke_max                       =   1.9182826424532E+01
(PID.TID 0000.0001) %MON ke_mean                      =   4.2304674648098E+00
(PID.TID 0000.0001) %MON ke_vol                       =   5.0986421042784E+19
(PID.TID 0000.0001) %MON vort_r_min                   =  -3.3249762302792E-07
(PID.TID 0000.0001) %MON vort_r_max                   =   3.3248979785746E-07
(PID.TID 0000.0001) %MON vort_a_mean                  =   1.1031098282033E-19
(PID.TID 0000.0001) %MON vort_a_sd                    =   8.4233250562901E-05
(PID.TID 0000.0001) %MON vort_p_mean                  =   1.1276233430068E-19
(PID.TID 0000.0001) %MON vort_p_sd                    =   8.4209347102791E-05
(PID.TID 0000.0001) %MON surfExpan_theta_mean         =  -1.3531525767019E+00
(PID.TID 0000.0001) %MON surfExpan_salt_mean          =  -1.8785520836126E-04
(PID.TID 0000.0001) %MON surfExpan_Heat_mean          =  -1.1859419770801E+02
(PID.TID 0000.0001) %MON En_Budget_T2PE_mean          =   1.4179558271828E+01
(PID.TID 0000.0001) // =======================================================
(PID.TID 0000.0001) // End MONITOR dynamic field statistics
(PID.TID 0000.0001) // =======================================================
 cg2d: Sum(rhs),rhsMax =   1.16415321826935E-10  1.44762059571656E+03
(PID.TID 0000.0001)      cg2d_init_res =   1.77621097206649E+04
(PID.TID 0000.0001)      cg2d_iters(min,last) =      -1      14
(PID.TID 0000.0001)      cg2d_last_res =   9.37219178912174E-11
(PID.TID 0000.0001) // =======================================================
(PID.TID 0000.0001) // Begin MONITOR dynamic field statistics
(PID.TID 0000.0001) // =======================================================
(PID.TID 0000.0001) %MON time_tsnumber                =                     5
(PID.TID 0000.0001) %MON time_secondsf                =   2.2500000000000E+03
(PID.TID 0000.0001) %MON dynstat_eta_max              =   2.8286609453901E+02
(PID.TID 0000.0001) %MON dynstat_eta_min              =  -1.9569160288161E+02
(PID.TID 0000.0001) %MON dynstat_eta_mean             =   2.8117290264343E-14
(PID.TID 0000.0001) %MON dynstat_eta_sd               =   1.5874449986451E+02
(PID.TID 0000.0001) %MON dynstat_eta_del2             =   1.4878970402941E-01
(PID.TID 0000.0001) %MON dynstat_uvel_max             =   7.7181854152627E+00
(PID.TID 0000.0001) %MON dynstat_uvel_min             =  -7.7181529032234E+00
(PID.TID 0000.0001) %MON dynstat_uvel_mean            =   5.9413509276085E-02
(PID.TID 0000.0001) %MON dynstat_uvel_sd              =   2.5579970353568E+00
(PID.TID 0000.0001) %MON dynstat_uvel_del2            =   4.5955632119169E-04
(PID.TID 0000.0001) %MON dynstat_vvel_max             =   7.7180977260935E+00
(PID.TID 0000.0001) %MON dynstat_vvel_min             =  -7.7178434465082E+00
(PID.TID 0000.0001) %MON dynstat_vvel_mean            =   5.9413426696352E-02
(PID.TID 0000.0001) %MON dynstat_vvel_sd              =   2.5579971232488E+00
(PID.TID 0000.0001) %MON dynstat_vvel_del2            =   4.5957109765242E-04
(PID.TID 0000.0001) %MON dynstat_wvel_max             =   6.6472817940765E-02
(PID.TID 0000.0001) %MON dynstat_wvel_min             =  -8.1385686158371E-02
(PID.TID 0000.0001) %MON dynstat_wvel_mean            =  -1.4729812228497E-17
(PID.TID 0000.0001) %MON dynstat_wvel_sd              =   2.5365224426104E-02
(PID.TID 0000.0001) %MON dynstat_wvel_del2            =   4.1557686099463E-05
(PID.TID 0000.0001) %MON dynstat_theta_max            =   6.1178520453428E+02
(PID.TID 0000.0001) %MON dynstat_theta_min            =   2.5527557312233E+02
(PID.TID 0000.0001) %MON dynstat_theta_mean           =   3.2489797998771E+02
(PID.TID 0000.0001) %MON dynstat_theta_sd             =   6.9624956791696E+01
(PID.TID 0000.0001) %MON dynstat_theta_del2           =   6.7548143403394E-04
(PID.TID 0000.0001) %MON dynstat_salt_max             =   3.8952964521187E-02
(PID.TID 0000.0001) %MON dynstat_salt_min             =   0.0000000000000E+00
(PID.TID 0000.0001) %MON dynstat_salt_mean            =   2.7413431101586E-03
(PID.TID 0000.0001) %MON dynstat_salt_sd              =   7.3625746988517E-03
(PID.TID 0000.0001) %MON dynstat_salt_del2            =   2.5986276008634E-07
(PID.TID 0000.0001) %MON advcfl_uvel_max              =   2.7096924141975E-02
(PID.TID 0000.0001) %MON advcfl_vvel_max              =   2.7094714788772E-02
(PID.TID 0000.0001) %MON advcfl_wvel_max              =   9.1558896928168E-03
(PID.TID 0000.0001) %MON advcfl_W_hf_max              =   9.1574938740564E-03
(PID.TID 0000.0001) %MON pe_b_mean                    =   1.0669630994635E-01
(PID.TID 0000.0001) %MON ke_max                       =   2.9725368112147E+01
(PID.TID 0000.0001) %MON ke_mean                      =   6.5468790178999E+00
(PID.TID 0000.0001) %MON ke_vol                       =   5.0986421042784E+19
(PID.TID 0000.0001) %MON vort_r_min                   =  -5.1407933735023E-07
(PID.TID 0000.0001) %MON vort_r_max                   =   5.1401935956668E-07
(PID.TID 0000.0001) %MON vort_a_mean                  =  -1.2501911386304E-19
(PID.TID 0000.0001) %MON vort_a_sd                    =   8.4251395122674E-05
(PID.TID 0000.0001) %MON vort_p_mean                  =  -1.2501910689678E-19
(PID.TID 0000.0001) %MON vort_p_sd                    =   8.4211688443392E-05
(PID.TID 0000.0001) %MON surfExpan_theta_mean         =  -1.6747171563560E+00
(PID.TID 0000.0001) %MON surfExpan_salt_mean          =  -2.3304242075007E-04
(PID.TID 0000.0001) %MON surfExpan_Heat_mean          =  -1.4682000174276E+02
(PID.TID 0000.0001) %MON En_Budget_T2PE_mean          =   1.7632613386792E+01
(PID.TID 0000.0001) // =======================================================
(PID.TID 0000.0001) // End MONITOR dynamic field statistics
(PID.TID 0000.0001) // =======================================================
 cg2d: Sum(rhs),rhsMax =  -6.98491930961609E-10  2.00337901848806E+03
(PID.TID 0000.0001)      cg2d_init_res =   2.11107178220779E+04
(PID.TID 0000.0001)      cg2d_iters(min,last) =      -1      15
(PID.TID 0000.0001)      cg2d_last_res =   1.11117740607825E-11
(PID.TID 0000.0001) // =======================================================
(PID.TID 0000.0001) // Begin MONITOR dynamic field statistics
(PID.TID 0000.0001) // =======================================================
(PID.TID 0000.0001) %MON time_tsnumber                =                     6
(PID.TID 0000.0001) %MON time_secondsf                =   2.7000000000000E+03
(PID.TID 0000.0001) %MON dynstat_eta_max              =   3.9210595807594E+02
(PID.TID 0000.0001) %MON dynstat_eta_min              =  -2.7247366637590E+02
(PID.TID 0000.0001) %MON dynstat_eta_mean             =  -4.0167557520490E-14
(PID.TID 0000.0001) %MON dynstat_eta_sd               =   2.2099648269902E+02
(PID.TID 0000.0001) %MON dynstat_eta_del2             =   1.6366850631956E-01
(PID.TID 0000.0001) %MON dynstat_uvel_max             =   9.2230384682348E+00
(PID.TID 0000.0001) %MON dynstat_uvel_min             =  -9.2231043447838E+00
(PID.TID 0000.0001) %MON dynstat_uvel_mean            =   8.5758001743280E-02
(PID.TID 0000.0001) %MON dynstat_uvel_sd              =   3.0520938004554E+00
(PID.TID 0000.0001) %MON dynstat_uvel_del2            =   5.4221096975318E-04
(PID.TID 0000.0001) %MON dynstat_vvel_max             =   9.2229992514235E+00
(PID.TID 0000.0001) %MON dynstat_vvel_min             =  -9.2229524146143E+00
(PID.TID 0000.0001) %MON dynstat_vvel_mean            =   8.5758021184971E-02
(PID.TID 0000.0001) %MON dynstat_vvel_sd              =   3.0520938405425E+00
(PID.TID 0000.0001) %MON dynstat_vvel_del2            =   5.4222854062384E-04
(PID.TID 0000.0001) %MON dynstat_wvel_max             =   7.8694950344779E-02
(PID.TID 0000.0001) %MON dynstat_wvel_min             =  -1.0135744550841E-01
(PID.TID 0000.0001) %MON dynstat_wvel_mean            =   1.6651092084388E-17
(PID.TID 0000.0001) %MON dynstat_wvel_sd              =   3.0194332846720E-02
(PID.TID 0000.0001) %MON dynstat_wvel_del2            =   4.7341737677582E-05
(PID.TID 0000.0001) %MON dynstat_theta_max            =   6.1183369175979E+02
(PID.TID 0000.0001) %MON dynstat_theta_min            =   2.5533481865385E+02
(PID.TID 0000.0001) %MON dynstat_theta_mean           =   3.2489217008195E+02
(PID.TID 0000.0001) %MON dynstat_theta_sd             =   6.9626068397374E+01
(PID.TID 0000.0001) %MON dynstat_theta_del2           =   6.7423776374979E-04
(PID.TID 0000.0001) %MON dynstat_salt_max             =   3.8952791867626E-02
(PID.TID 0000.0001) %MON dynstat_salt_min             =   0.0000000000000E+00
(PID.TID 0000.0001) %MON dynstat_salt_mean            =   2.7414979723556E-03
(PID.TID 0000.0001) %MON dynstat_salt_sd              =   7.3622042618158E-03
(PID.TID 0000.0001) %MON dynstat_salt_del2            =   2.6576242603562E-07
(PID.TID 0000.0001) %MON advcfl_uvel_max              =   3.2771693189438E-02
(PID.TID 0000.0001) %MON advcfl_vvel_max              =   3.2769746223295E-02
(PID.TID 0000.0001) %MON advcfl_wvel_max              =   1.1402712619696E-02
(PID.TID 0000.0001) %MON advcfl_W_hf_max              =   1.1404464156924E-02
(PID.TID 0000.0001) %MON pe_b_mean                    =   2.0678676984193E-01
(PID.TID 0000.0001) %MON ke_max                       =   4.2426885809831E+01
(PID.TID 0000.0001) %MON ke_mean                      =   9.3226311256583E+00
(PID.TID 0000.0001) %MON ke_vol                       =   5.0986421042785E+19
(PID.TID 0000.0001) %MON vort_r_min                   =  -7.4095990908195E-07
(PID.TID 0000.0001) %MON vort_r_max                   =   7.4088122453737E-07
(PID.TID 0000.0001) %MON vort_a_mean                  =  -2.5494093807366E-19
(PID.TID 0000.0001) %MON vort_a_sd                    =   8.4273321830885E-05
(PID.TID 0000.0001) %MON vort_p_mean                  =  -2.5739227164545E-19
(PID.TID 0000.0001) %MON vort_p_sd                    =   8.4214000438379E-05
(PID.TID 0000.0001) %MON surfExpan_theta_mean         =  -1.9864563071116E+00
(PID.TID 0000.0001) %MON surfExpan_salt_mean          =  -2.7714798961355E-04
(PID.TID 0000.0001) %MON surfExpan_Heat_mean          =  -1.7421112149349E+02
(PID.TID 0000.0001) %MON En_Budget_T2PE_mean          =   2.1031287972329E+01
(PID.TID 0000.0001) // =======================================================
(PID.TID 0000.0001) // End MONITOR dynamic field statistics
(PID.TID 0000.0001) // =======================================================
 cg2d: Sum(rhs),rhsMax =  -2.32830643653870E-09  2.64739600733093E+03
(PID.TID 0000.0001)      cg2d_init_res =   2.43555805074647E+04
(PID.TID 0000.0001)      cg2d_iters(min,last) =      -1      15
(PID.TID 0000.0001)      cg2d_last_res =   1.27381181431496E-11
(PID.TID 0000.0001) // =======================================================
(PID.TID 0000.0001) // Begin MONITOR dynamic field statistics
(PID.TID 0000.0001) // =======================================================
(PID.TID 0000.0001) %MON time_tsnumber                =                     7
(PID.TID 0000.0001) %MON time_secondsf                =   3.1500000000000E+03
(PID.TID 0000.0001) %MON dynstat_eta_max              =   5.1796963461178E+02
(PID.TID 0000.0001) %MON dynstat_eta_min              =  -3.6103063859333E+02
(PID.TID 0000.0001) %MON dynstat_eta_mean             =  -1.2050267256147E-13
(PID.TID 0000.0001) %MON dynstat_eta_sd               =   2.9282229868522E+02
(PID.TID 0000.0001) %MON dynstat_eta_del2             =   1.8300012293048E-01
(PID.TID 0000.0001) %MON dynstat_uvel_max             =   1.0710789288514E+01
(PID.TID 0000.0001) %MON dynstat_uvel_min             =  -1.0710910324311E+01
(PID.TID 0000.0001) %MON dynstat_uvel_mean            =   1.1644346197583E-01
(PID.TID 0000.0001) %MON dynstat_uvel_sd              =   3.5376721882556E+00
(PID.TID 0000.0001) %MON dynstat_uvel_del2            =   6.2231975647477E-04
(PID.TID 0000.0001) %MON dynstat_vvel_max             =   1.0710782020565E+01
(PID.TID 0000.0001) %MON dynstat_vvel_min             =  -1.0710692150341E+01
(PID.TID 0000.0001) %MON dynstat_vvel_mean            =   1.1644357537963E-01
(PID.TID 0000.0001) %MON dynstat_vvel_sd              =   3.5376721723838E+00
(PID.TID 0000.0001) %MON dynstat_vvel_del2            =   6.2233997190120E-04
(PID.TID 0000.0001) %MON dynstat_wvel_max             =   9.0120933942839E-02
(PID.TID 0000.0001) %MON dynstat_wvel_min             =  -1.2200802668869E-01
(PID.TID 0000.0001) %MON dynstat_wvel_mean            =   3.9706450355080E-17
(PID.TID 0000.0001) %MON dynstat_wvel_sd              =   3.4957530556517E-02
(PID.TID 0000.0001) %MON dynstat_wvel_del2            =   5.3430773490863E-05
(PID.TID 0000.0001) %MON dynstat_theta_max            =   6.1189505514993E+02
(PID.TID 0000.0001) %MON dynstat_theta_min            =   2.5539321665620E+02
(PID.TID 0000.0001) %MON dynstat_theta_mean           =   3.2488635110473E+02
(PID.TID 0000.0001) %MON dynstat_theta_sd             =   6.9627162086679E+01
(PID.TID 0000.0001) %MON dynstat_theta_del2           =   6.7204918941056E-04
(PID.TID 0000.0001) %MON dynstat_salt_max             =   3.8952619045548E-02
(PID.TID 0000.0001) %MON dynstat_salt_min             =   0.0000000000000E+00
(PID.TID 0000.0001) %MON dynstat_salt_mean            =   2.7416211569724E-03
(PID.TID 0000.0001) %MON dynstat_salt_sd              =   7.3617315371457E-03
(PID.TID 0000.0001) %MON dynstat_salt_del2            =   2.6995024798179E-07
(PID.TID 0000.0001) %MON advcfl_uvel_max              =   3.8474199987144E-02
(PID.TID 0000.0001) %MON advcfl_vvel_max              =   3.8473807283352E-02
(PID.TID 0000.0001) %MON advcfl_wvel_max              =   1.3725903002478E-02
(PID.TID 0000.0001) %MON advcfl_W_hf_max              =   1.3727453246908E-02
(PID.TID 0000.0001) %MON pe_b_mean                    =   3.6304488064500E-01
(PID.TID 0000.0001) %MON ke_max                       =   5.7194328830825E+01
(PID.TID 0000.0001) %MON ke_mean                      =   1.2528683548450E+01
(PID.TID 0000.0001) %MON ke_vol                       =   5.0986421042784E+19
(PID.TID 0000.0001) %MON vort_r_min                   =  -1.0175608225478E-06
(PID.TID 0000.0001) %MON vort_r_max                   =   1.0175829228760E-06
(PID.TID 0000.0001) %MON vort_a_mean                  =   2.9416262085422E-20
(PID.TID 0000.0001) %MON vort_a_sd                    =   8.4298944359989E-05
(PID.TID 0000.0001) %MON vort_p_mean                  =   2.9416258651613E-20
(PID.TID 0000.0001) %MON vort_p_sd                    =   8.4216281870036E-05
(PID.TID 0000.0001) %MON surfExpan_theta_mean         =  -2.2868891091693E+00
(PID.TID 0000.0001) %MON surfExpan_salt_mean          =  -3.2000793970499E-04
(PID.TID 0000.0001) %MON surfExpan_Heat_mean          =  -2.0064167726085E+02
(PID.TID 0000.0001) %MON En_Budget_T2PE_mean          =   2.4366982713153E+01
(PID.TID 0000.0001) // =======================================================
(PID.TID 0000.0001) // End MONITOR dynamic field statistics
(PID.TID 0000.0001) // =======================================================
 cg2d: Sum(rhs),rhsMax =  -2.56113708019257E-09  3.38979483231815E+03
(PID.TID 0000.0001)      cg2d_init_res =   2.74823223593469E+04
(PID.TID 0000.0001)      cg2d_iters(min,last) =      -1      15
(PID.TID 0000.0001)      cg2d_last_res =   1.41402654448630E-11
(PID.TID 0000.0001) // =======================================================
(PID.TID 0000.0001) // Begin MONITOR dynamic field statistics
(PID.TID 0000.0001) // =======================================================
(PID.TID 0000.0001) %MON time_tsnumber                =                     8
(PID.TID 0000.0001) %MON time_secondsf                =   3.6000000000000E+03
(PID.TID 0000.0001) %MON dynstat_eta_max              =   6.6143647716163E+02
(PID.TID 0000.0001) %MON dynstat_eta_min              =  -4.6089040105126E+02
(PID.TID 0000.0001) %MON dynstat_eta_mean             =  -1.7673725309016E-13
(PID.TID 0000.0001) %MON dynstat_eta_sd               =   3.7387624528704E+02
(PID.TID 0000.0001) %MON dynstat_eta_del2             =   2.0615211524747E-01
(PID.TID 0000.0001) %MON dynstat_uvel_max             =   1.2173206898552E+01
(PID.TID 0000.0001) %MON dynstat_uvel_min             =  -1.2173394154462E+01
(PID.TID 0000.0001) %MON dynstat_uvel_mean            =   1.5130621425655E-01
(PID.TID 0000.0001) %MON dynstat_uvel_sd              =   4.0136881159888E+00
(PID.TID 0000.0001) %MON dynstat_uvel_del2            =   6.9974739870977E-04
(PID.TID 0000.0001) %MON dynstat_vvel_max             =   1.2173225274738E+01
(PID.TID 0000.0001) %MON dynstat_vvel_min             =  -1.2173087674905E+01
(PID.TID 0000.0001) %MON dynstat_vvel_mean            =   1.5130642188854E-01
(PID.TID 0000.0001) %MON dynstat_vvel_sd              =   4.0136880388131E+00
(PID.TID 0000.0001) %MON dynstat_vvel_del2            =   6.9976993124559E-04
(PID.TID 0000.0001) %MON dynstat_wvel_max             =   1.0068219091603E-01
(PID.TID 0000.0001) %MON dynstat_wvel_min             =  -1.4348370816833E-01
(PID.TID 0000.0001) %MON dynstat_wvel_mean            =  -4.0987303592340E-17
(PID.TID 0000.0001) %MON dynstat_wvel_sd              =   3.9657135571448E-02
(PID.TID 0000.0001) %MON dynstat_wvel_del2            =   6.0008462870728E-05
(PID.TID 0000.0001) %MON dynstat_theta_max            =   6.1198780962101E+02
(PID.TID 0000.0001) %MON dynstat_theta_min            =   2.5545205634944E+02
(PID.TID 0000.0001) %MON dynstat_theta_mean           =   3.2488034105900E+02
(PID.TID 0000.0001) %MON dynstat_theta_sd             =   6.9628395228146E+01
(PID.TID 0000.0001) %MON dynstat_theta_del2           =   6.7043656912329E-04
(PID.TID 0000.0001) %MON dynstat_salt_max             =   3.8952445964393E-02
(PID.TID 0000.0001) %MON dynstat_salt_min             =   0.0000000000000E+00
(PID.TID 0000.0001) %MON dynstat_salt_mean            =   2.7417719948158E-03
(PID.TID 0000.0001) %MON dynstat_salt_sd              =   7.3611367492327E-03
(PID.TID 0000.0001) %MON dynstat_salt_del2            =   2.7396918990642E-07
(PID.TID 0000.0001) %MON advcfl_uvel_max              =   4.4155274528191E-02
(PID.TID 0000.0001) %MON advcfl_vvel_max              =   4.4156456760200E-02
(PID.TID 0000.0001) %MON advcfl_wvel_max              =   1.6141917168937E-02
(PID.TID 0000.0001) %MON advcfl_W_hf_max              =   1.6142812719088E-02
(PID.TID 0000.0001) %MON pe_b_mean                    =   5.9184471123369E-01
(PID.TID 0000.0001) %MON ke_max                       =   7.4028608610711E+01
(PID.TID 0000.0001) %MON ke_mean                      =   1.6132585584559E+01
(PID.TID 0000.0001) %MON ke_vol                       =   5.0986421042785E+19
(PID.TID 0000.0001) %MON vort_r_min                   =  -1.3064947767856E-06
(PID.TID 0000.0001) %MON vort_r_max                   =   1.3063578069076E-06
(PID.TID 0000.0001) %MON vort_a_mean                  =  -2.2062196564067E-20
(PID.TID 0000.0001) %MON vort_a_sd                    =   8.4328163878590E-05
(PID.TID 0000.0001) %MON vort_p_mean                  =  -2.2062193173088E-20
(PID.TID 0000.0001) %MON vort_p_sd                    =   8.4218533129461E-05
(PID.TID 0000.0001) %MON surfExpan_theta_mean         =  -2.5746695029242E+00
(PID.TID 0000.0001) %MON surfExpan_salt_mean          =  -3.6143869306218E-04
(PID.TID 0000.0001) %MON surfExpan_Heat_mean          =  -2.2599709961470E+02
(PID.TID 0000.0001) %MON En_Budget_T2PE_mean          =   2.7631849935115E+01
(PID.TID 0000.0001) // =======================================================
(PID.TID 0000.0001) // End MONITOR dynamic field statistics
(PID.TID 0000.0001) // =======================================================
 cg2d: Sum(rhs),rhsMax =  -1.86264514923096E-09  4.21904608199212E+03
(PID.TID 0000.0001)      cg2d_init_res =   3.04788746289933E+04
(PID.TID 0000.0001)      cg2d_iters(min,last) =      -1      15
(PID.TID 0000.0001)      cg2d_last_res =   1.53750236519572E-11
(PID.TID 0000.0001) // =======================================================
(PID.TID 0000.0001) // Begin MONITOR dynamic field statistics
(PID.TID 0000.0001) // =======================================================
(PID.TID 0000.0001) %MON time_tsnumber                =                     9
(PID.TID 0000.0001) %MON time_secondsf                =   4.0500000000000E+03
(PID.TID 0000.0001) %MON dynstat_eta_max              =   8.2237340334032E+02
(PID.TID 0000.0001) %MON dynstat_eta_min              =  -5.7151530250454E+02
(PID.TID 0000.0001) %MON dynstat_eta_mean             =   0.0000000000000E+00
(PID.TID 0000.0001) %MON dynstat_eta_sd               =   4.6377272061296E+02
(PID.TID 0000.0001) %MON dynstat_eta_del2             =   2.3062327089319E-01
(PID.TID 0000.0001) %MON dynstat_uvel_max             =   1.3608809944349E+01
(PID.TID 0000.0001) %MON dynstat_uvel_min             =  -1.3608409217142E+01
(PID.TID 0000.0001) %MON dynstat_uvel_mean            =   1.9016343991595E-01
(PID.TID 0000.0001) %MON dynstat_uvel_sd              =   4.4791839900188E+00
(PID.TID 0000.0001) %MON dynstat_uvel_del2            =   7.7434658753431E-04
(PID.TID 0000.0001) %MON dynstat_vvel_max             =   1.3608486481186E+01
(PID.TID 0000.0001) %MON dynstat_vvel_min             =  -1.3608273719133E+01
(PID.TID 0000.0001) %MON dynstat_vvel_mean            =   1.9016375241290E-01
(PID.TID 0000.0001) %MON dynstat_vvel_sd              =   4.4791838520986E+00
(PID.TID 0000.0001) %MON dynstat_vvel_del2            =   7.7437059743561E-04
(PID.TID 0000.0001) %MON dynstat_wvel_max             =   1.1009127673684E-01
(PID.TID 0000.0001) %MON dynstat_wvel_min             =  -1.6544957006204E-01
(PID.TID 0000.0001) %MON dynstat_wvel_mean            =   2.6897917982473E-17
(PID.TID 0000.0001) %MON dynstat_wvel_sd              =   4.4289561214456E-02
(PID.TID 0000.0001) %MON dynstat_wvel_del2            =   6.6995310431994E-05
(PID.TID 0000.0001) %MON dynstat_theta_max            =   6.1209723887533E+02
(PID.TID 0000.0001) %MON dynstat_theta_min            =   2.5550851984006E+02
(PID.TID 0000.0001) %MON dynstat_theta_mean           =   3.2487427248722E+02
(PID.TID 0000.0001) %MON dynstat_theta_sd             =   6.9629645490958E+01
(PID.TID 0000.0001) %MON dynstat_theta_del2           =   6.6897300739846E-04
(PID.TID 0000.0001) %MON dynstat_salt_max             =   3.8952272544686E-02
(PID.TID 0000.0001) %MON dynstat_salt_min             =   0.0000000000000E+00
(PID.TID 0000.0001) %MON dynstat_salt_mean            =   2.7419005180007E-03
(PID.TID 0000.0001) %MON dynstat_salt_sd              =   7.3604381728598E-03
(PID.TID 0000.0001) %MON dynstat_salt_del2            =   2.7747412603612E-07
(PID.TID 0000.0001) %MON advcfl_uvel_max              =   4.9771225316292E-02
(PID.TID 0000.0001) %MON advcfl_vvel_max              =   4.9773419211573E-02
(PID.TID 0000.0001) %MON advcfl_wvel_max              =   1.8613076631980E-02
(PID.TID 0000.0001) %MON advcfl_W_hf_max              =   1.8612791738269E-02
(PID.TID 0000.0001) %MON pe_b_mean                    =   9.1067292556884E-01
(PID.TID 0000.0001) %MON ke_max                       =   9.2688707045635E+01
(PID.TID 0000.0001) %MON ke_mean                      =   2.0099250791977E+01
(PID.TID 0000.0001) %MON ke_vol                       =   5.0986421042785E+19
(PID.TID 0000.0001) %MON vort_r_min                   =  -1.6436758957044E-06
(PID.TID 0000.0001) %MON vort_r_max                   =   1.6435494126759E-06
(PID.TID 0000.0001) %MON vort_a_mean                  =   3.2112752776586E-19
(PID.TID 0000.0001) %MON vort_a_sd                    =   8.4360869430135E-05
(PID.TID 0000.0001) %MON vort_p_mean                  =   3.2112746527319E-19
(PID.TID 0000.0001) %MON vort_p_sd                    =   8.4220756537613E-05
(PID.TID 0000.0001) %MON surfExpan_theta_mean         =  -2.8484555015866E+00
(PID.TID 0000.0001) %MON surfExpan_salt_mean          =  -4.0129039835465E-04
(PID.TID 0000.0001) %MON surfExpan_Heat_mean          =  -2.5016234470929E+02
(PID.TID 0000.0001) %MON En_Budget_T2PE_mean          =   3.0817939556304E+01
(PID.TID 0000.0001) // =======================================================
(PID.TID 0000.0001) // End MONITOR dynamic field statistics
(PID.TID 0000.0001) // =======================================================
 cg2d: Sum(rhs),rhsMax =  -3.25962901115417E-09  5.12473631659777E+03
(PID.TID 0000.0001)      cg2d_init_res =   3.33332013794554E+04
(PID.TID 0000.0001)      cg2d_iters(min,last) =      -1      15
(PID.TID 0000.0001)      cg2d_last_res =   1.65866649493850E-11
(PID.TID 0000.0001) // =======================================================
(PID.TID 0000.0001) // Begin MONITOR dynamic field statistics
(PID.TID 0000.0001) // =======================================================
(PID.TID 0000.0001) %MON time_tsnumber                =                    10
(PID.TID 0000.0001) %MON time_secondsf                =   4.5000000000000E+03
(PID.TID 0000.0001) %MON dynstat_eta_max              =   9.9840423209259E+02
(PID.TID 0000.0001) %MON dynstat_eta_min              =  -6.9229644652882E+02
(PID.TID 0000.0001) %MON dynstat_eta_mean             =   4.8201069024589E-14
(PID.TID 0000.0001) %MON dynstat_eta_sd               =   5.6208932165396E+02
(PID.TID 0000.0001) %MON dynstat_eta_del2             =   2.5469011236303E-01
(PID.TID 0000.0001) %MON dynstat_uvel_max             =   1.5017745642121E+01
(PID.TID 0000.0001) %MON dynstat_uvel_min             =  -1.5017328963968E+01
(PID.TID 0000.0001) %MON dynstat_uvel_mean            =   2.3281429872481E-01
(PID.TID 0000.0001) %MON dynstat_uvel_sd              =   4.9332508133788E+00
(PID.TID 0000.0001) %MON dynstat_uvel_del2            =   8.4600023908853E-04
(PID.TID 0000.0001) %MON dynstat_vvel_max             =   1.5017434019318E+01
(PID.TID 0000.0001) %MON dynstat_vvel_min             =  -1.5017188544967E+01
(PID.TID 0000.0001) %MON dynstat_vvel_mean            =   2.3281473198478E-01
(PID.TID 0000.0001) %MON dynstat_vvel_sd              =   4.9332506233117E+00
(PID.TID 0000.0001) %MON dynstat_vvel_del2            =   8.4602522772015E-04
(PID.TID 0000.0001) %MON dynstat_wvel_max             =   1.2704763992597E-01
(PID.TID 0000.0001) %MON dynstat_wvel_min             =  -1.8736044988309E-01
(PID.TID 0000.0001) %MON dynstat_wvel_mean            =  -4.3549010066862E-17
(PID.TID 0000.0001) %MON dynstat_wvel_sd              =   4.8848550591593E-02
(PID.TID 0000.0001) %MON dynstat_wvel_del2            =   7.4265563518307E-05
(PID.TID 0000.0001) %MON dynstat_theta_max            =   6.1221039703846E+02
(PID.TID 0000.0001) %MON dynstat_theta_min            =   2.5556444368229E+02
(PID.TID 0000.0001) %MON dynstat_theta_mean           =   3.2486792900369E+02
(PID.TID 0000.0001) %MON dynstat_theta_sd             =   6.9631097756712E+01
(PID.TID 0000.0001) %MON dynstat_theta_del2           =   6.6875949939169E-04
(PID.TID 0000.0001) %MON dynstat_salt_max             =   3.8952098697920E-02
(PID.TID 0000.0001) %MON dynstat_salt_min             =   0.0000000000000E+00
(PID.TID 0000.0001) %MON dynstat_salt_mean            =   2.7420795602649E-03
(PID.TID 0000.0001) %MON dynstat_salt_sd              =   7.3596129131740E-03
(PID.TID 0000.0001) %MON dynstat_salt_del2            =   2.8156980917680E-07
(PID.TID 0000.0001) %MON advcfl_uvel_max              =   5.5277897011683E-02
(PID.TID 0000.0001) %MON advcfl_vvel_max              =   5.5280025686954E-02
(PID.TID 0000.0001) %MON advcfl_wvel_max              =   2.1078050611848E-02
(PID.TID 0000.0001) %MON advcfl_W_hf_max              =   2.1075966699238E-02
(PID.TID 0000.0001) %MON pe_b_mean                    =   1.3377122237539E+00
(PID.TID 0000.0001) %MON ke_max                       =   1.1273136782660E+02
(PID.TID 0000.0001) %MON ke_mean                      =   2.4391165248614E+01
(PID.TID 0000.0001) %MON ke_vol                       =   5.0986421042784E+19
(PID.TID 0000.0001) %MON vort_r_min                   =  -2.0158105098564E-06
(PID.TID 0000.0001) %MON vort_r_max                   =   2.0156403803180E-06
(PID.TID 0000.0001) %MON vort_a_mean                  =   1.3482453455818E-19
(PID.TID 0000.0001) %MON vort_a_sd                    =   8.4396937002738E-05
(PID.TID 0000.0001) %MON vort_p_mean                  =   1.3727585687168E-19
(PID.TID 0000.0001) %MON vort_p_sd                    =   8.4222955173296E-05
(PID.TID 0000.0001) %MON surfExpan_theta_mean         =  -3.1070879427301E+00
(PID.TID 0000.0001) %MON surfExpan_salt_mean          =  -4.3938226903432E-04
(PID.TID 0000.0001) %MON surfExpan_Heat_mean          =  -2.7303780481441E+02
(PID.TID 0000.0001) %MON En_Budget_T2PE_mean          =   3.3918690730573E+01
(PID.TID 0000.0001) // =======================================================
(PID.TID 0000.0001) // End MONITOR dynamic field statistics
(PID.TID 0000.0001) // =======================================================
(PID.TID 0000.0001) DIAGSTATS_CLOSE_IO: close file: dynStDiag.0000000000.txt , unit=     9
(PID.TID 0000.0001) DIAGSTATS_CLOSE_IO: close file: flxStDiag.0000000000.txt , unit=    10
(PID.TID 0000.0001) %CHECKPOINT        10 ckptA
(PID.TID 0000.0001)   Seconds in section "ALL                    [THE_MODEL_MAIN]":
(PID.TID 0000.0001)           User time:   31.410000000000000
(PID.TID 0000.0001)         System time:  0.46000000000000002
(PID.TID 0000.0001)     Wall clock time:   32.052229881286621
(PID.TID 0000.0001)          No. starts:           1
(PID.TID 0000.0001)           No. stops:           1
(PID.TID 0000.0001)   Seconds in section "INITIALISE_FIXED       [THE_MODEL_MAIN]":
(PID.TID 0000.0001)           User time:  0.29999999999999999
(PID.TID 0000.0001)         System time:  5.00000000000000028E-002
(PID.TID 0000.0001)     Wall clock time:  0.41249394416809082
(PID.TID 0000.0001)          No. starts:           1
(PID.TID 0000.0001)           No. stops:           1
(PID.TID 0000.0001)   Seconds in section "THE_MAIN_LOOP          [THE_MODEL_MAIN]":
(PID.TID 0000.0001)           User time:   31.109999999999999
(PID.TID 0000.0001)         System time:  0.41000000000000003
(PID.TID 0000.0001)     Wall clock time:   31.639694213867188
(PID.TID 0000.0001)          No. starts:           1
(PID.TID 0000.0001)           No. stops:           1
(PID.TID 0000.0001)   Seconds in section "INITIALISE_VARIA    [THE_MAIN_LOOP]":
(PID.TID 0000.0001)           User time:   2.9800000000000004
(PID.TID 0000.0001)         System time:  6.99999999999999928E-002
(PID.TID 0000.0001)     Wall clock time:   3.0974659919738770
(PID.TID 0000.0001)          No. starts:           1
(PID.TID 0000.0001)           No. stops:           1
(PID.TID 0000.0001)   Seconds in section "MAIN LOOP           [THE_MAIN_LOOP]":
(PID.TID 0000.0001)           User time:   28.129999999999999
(PID.TID 0000.0001)         System time:  0.34000000000000002
(PID.TID 0000.0001)     Wall clock time:   28.542197942733765
(PID.TID 0000.0001)          No. starts:           1
(PID.TID 0000.0001)           No. stops:           1
(PID.TID 0000.0001)   Seconds in section "FORWARD_STEP        [THE_MAIN_LOOP]":
(PID.TID 0000.0001)           User time:   28.130000000000006
(PID.TID 0000.0001)         System time:  0.34000000000000014
(PID.TID 0000.0001)     Wall clock time:   28.542097091674805
(PID.TID 0000.0001)          No. starts:          10
(PID.TID 0000.0001)           No. stops:          10
(PID.TID 0000.0001)   Seconds in section "DO_STATEVARS_DIAGS  [FORWARD_STEP]":
(PID.TID 0000.0001)           User time:  0.64999999999999858
(PID.TID 0000.0001)         System time:  1.00000000000000089E-002
(PID.TID 0000.0001)     Wall clock time:  0.68803191184997559
(PID.TID 0000.0001)          No. starts:          30
(PID.TID 0000.0001)           No. stops:          30
(PID.TID 0000.0001)   Seconds in section "LOAD_FIELDS_DRIVER  [FORWARD_STEP]":
(PID.TID 0000.0001)           User time:   0.0000000000000000
(PID.TID 0000.0001)         System time:   0.0000000000000000
(PID.TID 0000.0001)     Wall clock time:  2.87532806396484375E-004
(PID.TID 0000.0001)          No. starts:          10
(PID.TID 0000.0001)           No. stops:          10
(PID.TID 0000.0001)   Seconds in section "EXTERNAL_FLDS_LOAD [LOAD_FLDS_DRIVER]":
(PID.TID 0000.0001)           User time:   0.0000000000000000
(PID.TID 0000.0001)         System time:   0.0000000000000000
(PID.TID 0000.0001)     Wall clock time:  9.75131988525390625E-005
(PID.TID 0000.0001)          No. starts:          10
(PID.TID 0000.0001)           No. stops:          10
(PID.TID 0000.0001)   Seconds in section "DO_ATMOSPHERIC_PHYS [FORWARD_STEP]":
(PID.TID 0000.0001)           User time:   0.0000000000000000
(PID.TID 0000.0001)         System time:   0.0000000000000000
(PID.TID 0000.0001)     Wall clock time:  8.96453857421875000E-005
(PID.TID 0000.0001)          No. starts:          10
(PID.TID 0000.0001)           No. stops:          10
(PID.TID 0000.0001)   Seconds in section "DO_OCEANIC_PHYS     [FORWARD_STEP]":
(PID.TID 0000.0001)           User time:   3.6200000000000045
(PID.TID 0000.0001)         System time:  0.23000000000000004
(PID.TID 0000.0001)     Wall clock time:   3.8255448341369629
(PID.TID 0000.0001)          No. starts:          10
(PID.TID 0000.0001)           No. stops:          10
(PID.TID 0000.0001)   Seconds in section "DYNAMICS            [FORWARD_STEP]":
(PID.TID 0000.0001)           User time:   7.4500000000000099
(PID.TID 0000.0001)         System time:  1.00000000000000089E-002
(PID.TID 0000.0001)     Wall clock time:   7.4741356372833252
(PID.TID 0000.0001)          No. starts:          10
(PID.TID 0000.0001)           No. stops:          10
(PID.TID 0000.0001)   Seconds in section "UPDATE_R_STAR       [FORWARD_STEP]":
(PID.TID 0000.0001)           User time:  0.48000000000000043
(PID.TID 0000.0001)         System time:   0.0000000000000000
(PID.TID 0000.0001)     Wall clock time:  0.48868298530578613
(PID.TID 0000.0001)          No. starts:          10
(PID.TID 0000.0001)           No. stops:          10
(PID.TID 0000.0001)   Seconds in section "UPDATE_CG2D         [FORWARD_STEP]":
(PID.TID 0000.0001)           User time:  0.18999999999999773
(PID.TID 0000.0001)         System time:   0.0000000000000000
(PID.TID 0000.0001)     Wall clock time:  0.18357467651367188
(PID.TID 0000.0001)          No. starts:          10
(PID.TID 0000.0001)           No. stops:          10
(PID.TID 0000.0001)   Seconds in section "SOLVE_FOR_PRESSURE  [FORWARD_STEP]":
(PID.TID 0000.0001)           User time:  0.67000000000000526
(PID.TID 0000.0001)         System time:   0.0000000000000000
(PID.TID 0000.0001)     Wall clock time:  0.67434406280517578
(PID.TID 0000.0001)          No. starts:          10
(PID.TID 0000.0001)           No. stops:          10
(PID.TID 0000.0001)   Seconds in section "MOM_CORRECTION_STEP [FORWARD_STEP]":
(PID.TID 0000.0001)           User time:   2.9599999999999973
(PID.TID 0000.0001)         System time:   0.0000000000000000
(PID.TID 0000.0001)     Wall clock time:   2.9682946205139160
(PID.TID 0000.0001)          No. starts:          10
(PID.TID 0000.0001)           No. stops:          10
(PID.TID 0000.0001)   Seconds in section "SHAP_FILT_UV       [MOM_CORR_STEP]":
(PID.TID 0000.0001)           User time:   2.7299999999999969
(PID.TID 0000.0001)         System time:   0.0000000000000000
(PID.TID 0000.0001)     Wall clock time:   2.7529392242431641
(PID.TID 0000.0001)          No. starts:          10
(PID.TID 0000.0001)           No. stops:          10
(PID.TID 0000.0001)   Seconds in section "INTEGR_CONTINUITY   [FORWARD_STEP]":
(PID.TID 0000.0001)           User time:  0.56000000000000227
(PID.TID 0000.0001)         System time:   0.0000000000000000
(PID.TID 0000.0001)     Wall clock time:  0.57434010505676270
(PID.TID 0000.0001)          No. starts:          10
(PID.TID 0000.0001)           No. stops:          10
(PID.TID 0000.0001)   Seconds in section "CALC_R_STAR         [FORWARD_STEP]":
(PID.TID 0000.0001)           User time:  6.99999999999967315E-002
(PID.TID 0000.0001)         System time:   0.0000000000000000
(PID.TID 0000.0001)     Wall clock time:  5.52608966827392578E-002
(PID.TID 0000.0001)          No. starts:          10
(PID.TID 0000.0001)           No. stops:          10
(PID.TID 0000.0001)   Seconds in section "BLOCKING_EXCHANGES  [FORWARD_STEP]":
(PID.TID 0000.0001)           User time:  0.43000000000000327
(PID.TID 0000.0001)         System time:   0.0000000000000000
(PID.TID 0000.0001)     Wall clock time:  0.43780994415283203
(PID.TID 0000.0001)          No. starts:          20
(PID.TID 0000.0001)           No. stops:          20
(PID.TID 0000.0001)   Seconds in section "THERMODYNAMICS      [FORWARD_STEP]":
(PID.TID 0000.0001)           User time:   6.1999999999999993
(PID.TID 0000.0001)         System time:   0.0000000000000000
(PID.TID 0000.0001)     Wall clock time:   6.1955547332763672
(PID.TID 0000.0001)          No. starts:          10
(PID.TID 0000.0001)           No. stops:          10
(PID.TID 0000.0001)   Seconds in section "TRC_CORRECTION_STEP [FORWARD_STEP]":
(PID.TID 0000.0001)           User time:   1.4100000000000037
(PID.TID 0000.0001)         System time:   0.0000000000000000
(PID.TID 0000.0001)     Wall clock time:   1.4195921421051025
(PID.TID 0000.0001)          No. starts:          10
(PID.TID 0000.0001)           No. stops:          10
(PID.TID 0000.0001)   Seconds in section "SHAP_FILT_TS       [TRC_CORR_STEP]":
(PID.TID 0000.0001)           User time:   1.3100000000000023
(PID.TID 0000.0001)         System time:   0.0000000000000000
(PID.TID 0000.0001)     Wall clock time:   1.3080041408538818
(PID.TID 0000.0001)          No. starts:          10
(PID.TID 0000.0001)           No. stops:          10
(PID.TID 0000.0001)   Seconds in section "MONITOR             [FORWARD_STEP]":
(PID.TID 0000.0001)           User time:   3.2500000000000036
(PID.TID 0000.0001)         System time:   0.0000000000000000
(PID.TID 0000.0001)     Wall clock time:   3.2728998661041260
(PID.TID 0000.0001)          No. starts:          10
(PID.TID 0000.0001)           No. stops:          10
(PID.TID 0000.0001)   Seconds in section "DO_THE_MODEL_IO     [FORWARD_STEP]":
(PID.TID 0000.0001)           User time:  7.99999999999982947E-002
(PID.TID 0000.0001)         System time:  4.00000000000000355E-002
(PID.TID 0000.0001)     Wall clock time:  0.11946535110473633
(PID.TID 0000.0001)          No. starts:          10
(PID.TID 0000.0001)           No. stops:          10
(PID.TID 0000.0001)   Seconds in section "DO_WRITE_PICKUP     [FORWARD_STEP]":
(PID.TID 0000.0001)           User time:  0.10999999999999943
(PID.TID 0000.0001)         System time:  4.99999999999999889E-002
(PID.TID 0000.0001)     Wall clock time:  0.16200470924377441
(PID.TID 0000.0001)          No. starts:          10
(PID.TID 0000.0001)           No. stops:          10
(PID.TID 0000.0001) // ======================================================
(PID.TID 0000.0001) // Tile <-> Tile communication statistics
(PID.TID 0000.0001) // ======================================================
(PID.TID 0000.0001) // o Tile number: 000001
(PID.TID 0000.0001) //         No. X exchanges =              0
(PID.TID 0000.0001) //            Max. X spins =              0
(PID.TID 0000.0001) //            Min. X spins =     1000000000
(PID.TID 0000.0001) //          Total. X spins =              0
(PID.TID 0000.0001) //            Avg. X spins =       0.00E+00
(PID.TID 0000.0001) //         No. Y exchanges =              0
(PID.TID 0000.0001) //            Max. Y spins =              0
(PID.TID 0000.0001) //            Min. Y spins =     1000000000
(PID.TID 0000.0001) //          Total. Y spins =              0
(PID.TID 0000.0001) //            Avg. Y spins =       0.00E+00
(PID.TID 0000.0001) // o Tile number: 000002
(PID.TID 0000.0001) //         No. X exchanges =              0
(PID.TID 0000.0001) //            Max. X spins =              0
(PID.TID 0000.0001) //            Min. X spins =     1000000000
(PID.TID 0000.0001) //          Total. X spins =              0
(PID.TID 0000.0001) //            Avg. X spins =       0.00E+00
(PID.TID 0000.0001) //         No. Y exchanges =              0
(PID.TID 0000.0001) //            Max. Y spins =              0
(PID.TID 0000.0001) //            Min. Y spins =     1000000000
(PID.TID 0000.0001) //          Total. Y spins =              0
(PID.TID 0000.0001) //            Avg. Y spins =       0.00E+00
(PID.TID 0000.0001) // o Tile number: 000003
(PID.TID 0000.0001) //         No. X exchanges =              0
(PID.TID 0000.0001) //            Max. X spins =              0
(PID.TID 0000.0001) //            Min. X spins =     1000000000
(PID.TID 0000.0001) //          Total. X spins =              0
(PID.TID 0000.0001) //            Avg. X spins =       0.00E+00
(PID.TID 0000.0001) //         No. Y exchanges =              0
(PID.TID 0000.0001) //            Max. Y spins =              0
(PID.TID 0000.0001) //            Min. Y spins =     1000000000
(PID.TID 0000.0001) //          Total. Y spins =              0
(PID.TID 0000.0001) //            Avg. Y spins =       0.00E+00
(PID.TID 0000.0001) // o Tile number: 000004
(PID.TID 0000.0001) //         No. X exchanges =              0
(PID.TID 0000.0001) //            Max. X spins =              0
(PID.TID 0000.0001) //            Min. X spins =     1000000000
(PID.TID 0000.0001) //          Total. X spins =              0
(PID.TID 0000.0001) //            Avg. X spins =       0.00E+00
(PID.TID 0000.0001) //         No. Y exchanges =              0
(PID.TID 0000.0001) //            Max. Y spins =              0
(PID.TID 0000.0001) //            Min. Y spins =     1000000000
(PID.TID 0000.0001) //          Total. Y spins =              0
(PID.TID 0000.0001) //            Avg. Y spins =       0.00E+00
(PID.TID 0000.0001) // o Tile number: 000005
(PID.TID 0000.0001) //         No. X exchanges =              0
(PID.TID 0000.0001) //            Max. X spins =              0
(PID.TID 0000.0001) //            Min. X spins =     1000000000
(PID.TID 0000.0001) //          Total. X spins =              0
(PID.TID 0000.0001) //            Avg. X spins =       0.00E+00
(PID.TID 0000.0001) //         No. Y exchanges =              0
(PID.TID 0000.0001) //            Max. Y spins =              0
(PID.TID 0000.0001) //            Min. Y spins =     1000000000
(PID.TID 0000.0001) //          Total. Y spins =              0
(PID.TID 0000.0001) //            Avg. Y spins =       0.00E+00
(PID.TID 0000.0001) // o Tile number: 000006
(PID.TID 0000.0001) //         No. X exchanges =              0
(PID.TID 0000.0001) //            Max. X spins =              0
(PID.TID 0000.0001) //            Min. X spins =     1000000000
(PID.TID 0000.0001) //          Total. X spins =              0
(PID.TID 0000.0001) //            Avg. X spins =       0.00E+00
(PID.TID 0000.0001) //         No. Y exchanges =              0
(PID.TID 0000.0001) //            Max. Y spins =              0
(PID.TID 0000.0001) //            Min. Y spins =     1000000000
(PID.TID 0000.0001) //          Total. Y spins =              0
(PID.TID 0000.0001) //            Avg. Y spins =       0.00E+00
(PID.TID 0000.0001) // o Thread number: 000001
(PID.TID 0000.0001) //            No. barriers =           4242
(PID.TID 0000.0001) //      Max. barrier spins =              1
(PID.TID 0000.0001) //      Min. barrier spins =              1
(PID.TID 0000.0001) //     Total barrier spins =           4242
(PID.TID 0000.0001) //      Avg. barrier spins =       1.00E+00
PROGRAM MAIN: Execution ended Normally
