(PID.TID 0000.0001) 
(PID.TID 0000.0001) // ======================================================
(PID.TID 0000.0001) //                      MITgcm UV
(PID.TID 0000.0001) //                      =========
(PID.TID 0000.0001) // ======================================================
(PID.TID 0000.0001) // execution environment starting up...
(PID.TID 0000.0001) 
(PID.TID 0000.0001) // MITgcmUV version:  checkpoint68p
(PID.TID 0000.0001) // Build user:        jm_c
(PID.TID 0000.0001) // Build host:        villon
(PID.TID 0000.0001) // Build date:        Fri Jun  9 13:37:06 EDT 2023
(PID.TID 0000.0001) 
(PID.TID 0000.0001) // =======================================================
(PID.TID 0000.0001) // Execution Environment parameter file "eedata"
(PID.TID 0000.0001) // =======================================================
(PID.TID 0000.0001) ># Example "eedata" file
(PID.TID 0000.0001) ># Lines beginning "#" are comments
(PID.TID 0000.0001) ># nTx - No. threads per process in X
(PID.TID 0000.0001) ># nTy - No. threads per process in Y
(PID.TID 0000.0001) > &EEPARMS
(PID.TID 0000.0001) > useCubedSphereExchange=.TRUE.,
(PID.TID 0000.0001) > nTx=1,
(PID.TID 0000.0001) > nTy=1,
(PID.TID 0000.0001) > /
(PID.TID 0000.0001) ># Note: Some systems use & as the
(PID.TID 0000.0001) ># namelist terminator. Other systems
(PID.TID 0000.0001) ># use a / character (as shown here).
(PID.TID 0000.0001) 
(PID.TID 0000.0001) // =======================================================
(PID.TID 0000.0001) // Computational Grid Specification ( see files "SIZE.h" )
(PID.TID 0000.0001) //                                  ( and "eedata"       )
(PID.TID 0000.0001) // =======================================================
(PID.TID 0000.0001)      nPx =    8 ; /* No. processes in X */
(PID.TID 0000.0001)      nPy =    1 ; /* No. processes in Y */
(PID.TID 0000.0001)      nSx =   12 ; /* No. tiles in X per process */
(PID.TID 0000.0001)      nSy =    1 ; /* No. tiles in Y per process */
(PID.TID 0000.0001)      sNx =   30 ; /* Tile size in X */
(PID.TID 0000.0001)      sNy =   30 ; /* Tile size in Y */
(PID.TID 0000.0001)      OLx =    4 ; /* Tile overlap distance in X */
(PID.TID 0000.0001)      OLy =    4 ; /* Tile overlap distance in Y */
(PID.TID 0000.0001)      nTx =    1 ; /* No. threads in X per process */
(PID.TID 0000.0001)      nTy =    1 ; /* No. threads in Y per process */
(PID.TID 0000.0001)       Nr =   50 ; /* No. levels in the vertical   */
(PID.TID 0000.0001)       Nx = 2880 ; /* Total domain size in X ( = nPx*nSx*sNx ) */
(PID.TID 0000.0001)       Ny =   30 ; /* Total domain size in Y ( = nPy*nSy*sNy ) */
(PID.TID 0000.0001)   nTiles =   12 ; /* Total no. tiles per process ( = nSx*nSy ) */
(PID.TID 0000.0001)   nProcs =    8 ; /* Total no. processes ( = nPx*nPy ) */
(PID.TID 0000.0001) nThreads =    1 ; /* Total no. threads per process ( = nTx*nTy ) */
(PID.TID 0000.0001) usingMPI =    T ; /* Flag used to control whether MPI is in use */
(PID.TID 0000.0001)                   /*  note: To execute a program with MPI calls */
(PID.TID 0000.0001)                   /*  it must be launched appropriately e.g     */
(PID.TID 0000.0001)                   /*  "mpirun -np 64 ......"                    */
(PID.TID 0000.0001) useCoupler=   F ; /* Flag used to control communications with   */
(PID.TID 0000.0001)                   /*  other model components, through a coupler */
(PID.TID 0000.0001) useNest2W_parent =    F ;/* Control 2-W Nesting comm */
(PID.TID 0000.0001) useNest2W_child  =    F ;/* Control 2-W Nesting comm */
(PID.TID 0000.0001) debugMode =    F ; /* print debug msg. (sequence of S/R calls)  */
(PID.TID 0000.0001) printMapIncludesZeros=    F ; /* print zeros in Std.Output maps */
(PID.TID 0000.0001) maxLengthPrt1D=   65 /* maxLength of 1D array printed to StdOut */
(PID.TID 0000.0001) 
(PID.TID 0000.0001) ======= Starting MPI parallel Run =========
(PID.TID 0000.0001)  My Processor Name (len:  6 ) = villon
(PID.TID 0000.0001)  Located at (  0,  0) on processor grid (0:  7,0:  0)
(PID.TID 0000.0001)  Origin at  (     1,     1) on global grid (1:  2880,1:    30)
(PID.TID 0000.0001)  North neighbor = processor 0000
(PID.TID 0000.0001)  South neighbor = processor 0000
(PID.TID 0000.0001)   East neighbor = processor 0001
(PID.TID 0000.0001)   West neighbor = processor 0007
(PID.TID 0000.0001) // ======================================================
(PID.TID 0000.0001) // Mapping of tiles to threads
(PID.TID 0000.0001) // ======================================================
(PID.TID 0000.0001) // -o- Thread   1, tiles (   1:  12,   1:   1)
(PID.TID 0000.0001) 
(PID.TID 0000.0001) W2_READPARMS: opening data.exch2
(PID.TID 0000.0001)  OPEN_COPY_DATA_FILE: opening file data.exch2
(PID.TID 0000.0001) // =======================================================
(PID.TID 0000.0001) // Parameter file "data.exch2"
(PID.TID 0000.0001) // =======================================================
(PID.TID 0000.0001) ># EXCH2 Package: Wrapper-2 User Choice
(PID.TID 0000.0001) >#--------------------
(PID.TID 0000.0001) >#  preDefTopol   :: pre-defined Topology selector:
(PID.TID 0000.0001) >#                :: = 0 : topology defined from processing "data.exch2";
(PID.TID 0000.0001) >#                :: = 1 : simple, single facet topology;
(PID.TID 0000.0001) >#                :: = 2 : customized topology (w2_set_myown_facets)
(PID.TID 0000.0001) >#                :: = 3 : 6-facet Cube (3 face-dims: nRed, nGreen, nBlue).
(PID.TID 0000.0001) >#  dimsFacets    :: facet pair of dimensions (n1x,n1y, n2x,n2y ...)
(PID.TID 0000.0001) >#  facetEdgeLink :: Face-Edge connectivity map:
(PID.TID 0000.0001) >#    facetEdgeLink(i,j)=XX.1 : face(j)-edge(i) (i=1,2,3,4 <==> N,S,E,W)
(PID.TID 0000.0001) >#    is connected to Northern edge of face "XX" ; similarly,
(PID.TID 0000.0001) >#    = XX.2 : to Southern.E, XX.3 = Eastern.E, XX.4 = Western.E of face "XX"
(PID.TID 0000.0001) >#  blankList     :: List of "blank" tiles
(PID.TID 0000.0001) >#  W2_mapIO      :: global map IO selector (-1 = old type ; 0 = 1 long line in X
(PID.TID 0000.0001) >#                :: 1 = compact, mostly in Y dir)
(PID.TID 0000.0001) >#  W2_printMsg   :: option for information messages printing
(PID.TID 0000.0001) >#                :: <0 : write to log file ; =0 : minimum print ;
(PID.TID 0000.0001) >#                :: =1 : no duplicated print ; =2 : all processes do print
(PID.TID 0000.0001) >#--------------------
(PID.TID 0000.0001) > &W2_EXCH2_PARM01
(PID.TID 0000.0001) ># W2_printMsg= 0,
(PID.TID 0000.0001) >  W2_mapIO   = 1,
(PID.TID 0000.0001) >#
(PID.TID 0000.0001) >  preDefTopol=0,
(PID.TID 0000.0001) >#-- 5 facets llc_120 topology (drop facet 6 and its connection):
(PID.TID 0000.0001) >  dimsFacets(1:10) = 90, 270, 90, 270, 90, 90, 270, 90, 270, 90,
(PID.TID 0000.0001) >  facetEdgeLink(1:4,1)= 3.4, 0. , 2.4, 5.1,
(PID.TID 0000.0001) >  facetEdgeLink(1:4,2)= 3.2, 0. , 4.2, 1.3,
(PID.TID 0000.0001) >  facetEdgeLink(1:4,3)= 5.4, 2.1, 4.4, 1.1,
(PID.TID 0000.0001) >  facetEdgeLink(1:4,4)= 5.2, 2.3, 0. , 3.3,
(PID.TID 0000.0001) >  facetEdgeLink(1:4,5)= 1.4, 4.1, 0. , 3.1,
(PID.TID 0000.0001) >#-- full 6 facets llc_120 topology (equivalent to default preDefTopol=3):
(PID.TID 0000.0001) ># dimsFacets(1:12) = 120, 360, 120, 360, 120, 120, 360, 120, 360, 120, 120, 120,
(PID.TID 0000.0001) ># facetEdgeLink(1:4,1)= 3.4, 6.1, 2.4, 5.1,
(PID.TID 0000.0001) ># facetEdgeLink(1:4,2)= 3.2, 6.3, 4.2, 1.3,
(PID.TID 0000.0001) ># facetEdgeLink(1:4,3)= 5.4, 2.1, 4.4, 1.1,
(PID.TID 0000.0001) ># facetEdgeLink(1:4,4)= 5.2, 2.3, 6.2, 3.3,
(PID.TID 0000.0001) ># facetEdgeLink(1:4,5)= 1.4, 4.1, 6.4, 3.1,
(PID.TID 0000.0001) ># facetEdgeLink(1:4,6)= 1.2, 4.3, 2.2, 5.3,
(PID.TID 0000.0001) >#
(PID.TID 0000.0001) >#90x30   nprocs = 36
(PID.TID 0000.0001) >#  blankList(1:3)=1,10,11,
(PID.TID 0000.0001) >#30x90
(PID.TID 0000.0001) >#
(PID.TID 0000.0001) >#45x30   nprocs = 72
(PID.TID 0000.0001) >#  blankList(1:6)=1,2,19,20,21,22
(PID.TID 0000.0001) >#old:  blankList(1:8)=1,2,19,20,21,22,33,72
(PID.TID 0000.0001) >#30x45   nprocs = 68
(PID.TID 0000.0001) >#  blankList(1:10)=2,3,19,20,21,35,51,60,69,78
(PID.TID 0000.0001) >#45x45   nprocs = 48
(PID.TID 0000.0001) >#  blankList(1:4)=2,13,14,23
(PID.TID 0000.0001) >#30x30   nprocs = 96
(PID.TID 0000.0001) >  blankList(1:21)=1,2,3,5,6,28,29,30,31,32,33,49,50,52,53,72,81,90,99,108,117
(PID.TID 0000.0001) >#30x30   nprocs = 112
(PID.TID 0000.0001) ># blankList(1:5)=2,3,28,29,30
(PID.TID 0000.0001) >#15x30   nprocs = 192
(PID.TID 0000.0001) >#  blankList(1:42)=1,2,3,4,5,6,9,10,11,12,55,56,57,58,59,60,61,62,63,64,65,66,
(PID.TID 0000.0001) >#            97,98,99,100,103,104,105,106,143,144,
(PID.TID 0000.0001) >#            161,162,179,180,197,198,215,216,233,234
(PID.TID 0000.0001) >#15x15   nprocs = 360
(PID.TID 0000.0001) >#  blankList(1:108)=1,2,3,4,5,6,7,8,9,10,11,12,14,15,16,17,18,21,22,23,24,
(PID.TID 0000.0001) >#  65,71,75,76,90,95,96,101,102,109,110,111,112,113,114,115,116,117,118,119,
(PID.TID 0000.0001) >#  120,121,122,123,124,125,126,127,128,129,130,131,132,
(PID.TID 0000.0001) >#  188,189,190,193,194,195,196,199,
(PID.TID 0000.0001) >#  200,201,202,203,205,206,207,208,209,211,212,213,214,215,216,242,247,253,
(PID.TID 0000.0001) >#  267,268,269,270,287,288,305,306,323,324,341,342,359,360,362,376,377,378,
(PID.TID 0000.0001) >#  380,381,382,395,396,400,412,413,414,430,
(PID.TID 0000.0001) >#note: it seems that 8 of the followig 9 tiles could be added to 15x15 blank
(PID.TID 0000.0001) >#  list to reach 352=22*16 cores : 431 432 440 441 448 449 450 467 468
(PID.TID 0000.0001) >#
(PID.TID 0000.0001) > /
(PID.TID 0000.0001) 
(PID.TID 0000.0001) W2_READPARMS: finished reading data.exch2
(PID.TID 0000.0001) W2_useE2ioLayOut=    T ;/* T: use Exch2 glob IO map; F: use model default */
(PID.TID 0000.0001) W2_mapIO        =   1 ; /* select option for Exch2 global-IO map */
(PID.TID 0000.0001) W2_printMsg     =  -1 ; /* select option for printing information */
(PID.TID 0000.0001) ===== Start setting W2 TOPOLOGY:
(PID.TID 0000.0001)  write to log-file: w2_tile_topology.0000.log
(PID.TID 0000.0001) =====       setting W2 TOPOLOGY: Done
(PID.TID 0000.0001) 
(PID.TID 0000.0001)  INI_PARMS: opening model parameter file "data"
(PID.TID 0000.0001)  OPEN_COPY_DATA_FILE: opening file data
(PID.TID 0000.0001) // =======================================================
(PID.TID 0000.0001) // Parameter file "data"
(PID.TID 0000.0001) // =======================================================
(PID.TID 0000.0001) ># ====================
(PID.TID 0000.0001) ># | Model parameters |
(PID.TID 0000.0001) ># ====================
(PID.TID 0000.0001) >#
(PID.TID 0000.0001) ># Continuous equation parameters
(PID.TID 0000.0001) > &PARM01
(PID.TID 0000.0001) > tRef = 3*23., 3*22., 21., 2*20., 19., 2*18., 17., 2*16., 15., 14., 13.,
(PID.TID 0000.0001) >        12., 11., 2*9., 8., 7., 2*6., 2*5., 3*4., 3*3., 4*2., 12*1.,
(PID.TID 0000.0001) > sRef = 50*34.5,
(PID.TID 0000.0001) > no_slip_sides  = .TRUE.,
(PID.TID 0000.0001) > no_slip_bottom = .TRUE.,
(PID.TID 0000.0001) >#
(PID.TID 0000.0001) > viscAr=1.E-3,
(PID.TID 0000.0001) >#
(PID.TID 0000.0001) > viscAh=1.E0,
(PID.TID 0000.0001) > viscAhGrid=2.E-2,
(PID.TID 0000.0001) ># viscAh=2.0e4,
(PID.TID 0000.0001) >#
(PID.TID 0000.0001) > diffKhT=1.E1,
(PID.TID 0000.0001) > diffKrT=1.E-5,
(PID.TID 0000.0001) > diffKhS=1.E1,
(PID.TID 0000.0001) > diffKrS=1.E-5,
(PID.TID 0000.0001) >#
(PID.TID 0000.0001) >### diffKrBL79surf=0.1E-4,
(PID.TID 0000.0001) >### diffKrBL79deep=1.0E-4,
(PID.TID 0000.0001) > bottomDragQuadratic = 0.001,
(PID.TID 0000.0001) >#when using ggl90
(PID.TID 0000.0001) > ivdc_kappa=10.,
(PID.TID 0000.0001) > implicitDiffusion=.TRUE.,
(PID.TID 0000.0001) > implicitViscosity=.TRUE.,
(PID.TID 0000.0001) > useRealFreshWaterFlux=.TRUE.,
(PID.TID 0000.0001) ># balanceThetaClimRelax=.TRUE.,
(PID.TID 0000.0001) > balanceSaltClimRelax=.TRUE.,
(PID.TID 0000.0001) > selectBalanceEmPmR=1,
(PID.TID 0000.0001) ># balanceQnet=.TRUE.,
(PID.TID 0000.0001) > allowFreezing=.FALSE.,
(PID.TID 0000.0001) >### hFacInf=0.2,
(PID.TID 0000.0001) >### hFacSup=2.0,
(PID.TID 0000.0001) > hFacMin=.2,
(PID.TID 0000.0001) > hFacMinDr=5.,
(PID.TID 0000.0001) > select_rStar=2,
(PID.TID 0000.0001) > nonlinFreeSurf=4,
(PID.TID 0000.0001) > gravity=9.81,
(PID.TID 0000.0001) > rhonil=1029.,
(PID.TID 0000.0001) > rhoConst=1029.,
(PID.TID 0000.0001) > rhoConstFresh=1000.,
(PID.TID 0000.0001) > convertFW2Salt=-1.,
(PID.TID 0000.0001) > eosType='JMD95Z',
(PID.TID 0000.0001) > implicitFreeSurface=.TRUE.,
(PID.TID 0000.0001) > exactConserv=.TRUE.,
(PID.TID 0000.0001) > useSingleCpuIO=.TRUE.,
(PID.TID 0000.0001) > tempAdvScheme=33,
(PID.TID 0000.0001) > saltAdvScheme=33,
(PID.TID 0000.0001) > staggerTimeStep=.TRUE.,
(PID.TID 0000.0001) > vectorInvariantMomentum=.TRUE.,
(PID.TID 0000.0001) >#when using the cd scheme:
(PID.TID 0000.0001) ># useCDscheme=.TRUE.,
(PID.TID 0000.0001) > useJamartWetPoints=.TRUE.,
(PID.TID 0000.0001) > readBinaryPrec=32,
(PID.TID 0000.0001) > writeBinaryPrec=32,
(PID.TID 0000.0001) > debugLevel=1,
(PID.TID 0000.0001) > /
(PID.TID 0000.0001) >
(PID.TID 0000.0001) ># Elliptic solver parameters
(PID.TID 0000.0001) > &PARM02
(PID.TID 0000.0001) > cg2dMaxIters=300,
(PID.TID 0000.0001) > cg2dTargetResWunit=1.E-12,
(PID.TID 0000.0001) > /
(PID.TID 0000.0001) >
(PID.TID 0000.0001) ># Time stepping parameters
(PID.TID 0000.0001) > &PARM03
(PID.TID 0000.0001) > nIter0=0,
(PID.TID 0000.0001) >#2 lev2 for testing:
(PID.TID 0000.0001) > nTimeSteps=8,
(PID.TID 0000.0001) >#60 years
(PID.TID 0000.0001) >#nTimeSteps=525985,
(PID.TID 0000.0001) >#
(PID.TID 0000.0001) > forcing_In_AB=.FALSE.,
(PID.TID 0000.0001) > momDissip_In_AB=.FALSE.,
(PID.TID 0000.0001) >#when using the cd scheme:
(PID.TID 0000.0001) ># epsAB_CD = 0.25,
(PID.TID 0000.0001) ># tauCD=172800.0,
(PID.TID 0000.0001) > deltaTmom   =3600.,
(PID.TID 0000.0001) > deltaTtracer=3600.,
(PID.TID 0000.0001) > deltaTfreesurf=3600.,
(PID.TID 0000.0001) > deltaTClock =3600.,
(PID.TID 0000.0001) >#when using ab2:
(PID.TID 0000.0001) ># abEps = 0.1,
(PID.TID 0000.0001) >#when using ab3:
(PID.TID 0000.0001) > doAB_onGtGs=.FALSE.,
(PID.TID 0000.0001) > alph_AB=0.5,
(PID.TID 0000.0001) > beta_AB=0.281105,
(PID.TID 0000.0001) >#
(PID.TID 0000.0001) > pChkptFreq  =31536000.0,
(PID.TID 0000.0001) > chkptFreq   =31536000.0,
(PID.TID 0000.0001) ># dumpFreq    =31536000.0,
(PID.TID 0000.0001) > monitorFreq = 3600.0,
(PID.TID 0000.0001) > dumpInitAndLast = .TRUE.,
(PID.TID 0000.0001) >#pickupStrictlyMatch=.FALSE.,
(PID.TID 0000.0001) > /
(PID.TID 0000.0001) >
(PID.TID 0000.0001) ># Gridding parameters
(PID.TID 0000.0001) > &PARM04
(PID.TID 0000.0001) > usingCurvilinearGrid=.TRUE.,
(PID.TID 0000.0001) > delR =
(PID.TID 0000.0001) >     10.00, 10.00, 10.00, 10.00, 10.00, 10.00, 10.00, 10.01,
(PID.TID 0000.0001) >     10.03, 10.11, 10.32, 10.80, 11.76, 13.42, 16.04, 19.82, 24.85,
(PID.TID 0000.0001) >     31.10, 38.42, 46.50, 55.00, 63.50, 71.58, 78.90, 85.15, 90.18,
(PID.TID 0000.0001) >     93.96, 96.58, 98.25, 99.25,100.01,101.33,104.56,111.33,122.83,
(PID.TID 0000.0001) >     139.09,158.94,180.83,203.55,226.50,249.50,272.50,295.50,318.50,
(PID.TID 0000.0001) >     341.50,364.50,387.50,410.50,433.50,456.50,
(PID.TID 0000.0001) > /
(PID.TID 0000.0001) >
(PID.TID 0000.0001) ># Input datasets
(PID.TID 0000.0001) > &PARM05
(PID.TID 0000.0001) > adTapeDir='tapes',
(PID.TID 0000.0001) >#bathyFile      ='bathy_eccollc_90x50.bin',
(PID.TID 0000.0001) > bathyFile      ='bathy_eccollc_90x50_min2pts.bin',
(PID.TID 0000.0001) > hydrogThetaFile='some_T_atlas.bin',
(PID.TID 0000.0001) > hydrogSaltFile ='some_S_atlas.bin',
(PID.TID 0000.0001) > viscA4Dfile    ='viscA4Dfld_eccollc_90x50.bin',
(PID.TID 0000.0001) > viscA4Zfile    ='viscA4Zfld_eccollc_90x50.bin',
(PID.TID 0000.0001) > /
(PID.TID 0000.0001) 
(PID.TID 0000.0001)  INI_PARMS ; starts to read PARM01
(PID.TID 0000.0001)  INI_PARMS ; read PARM01 : OK
(PID.TID 0000.0001)  INI_PARMS ; starts to read PARM02
(PID.TID 0000.0001)  INI_PARMS ; read PARM02 : OK
(PID.TID 0000.0001)  INI_PARMS ; starts to read PARM03
(PID.TID 0000.0001)  INI_PARMS ; read PARM03 : OK
(PID.TID 0000.0001)  INI_PARMS ; starts to read PARM04
(PID.TID 0000.0001)  INI_PARMS ; read PARM04 : OK
(PID.TID 0000.0001)  INI_PARMS ; starts to read PARM05
(PID.TID 0000.0001)  INI_PARMS ; read PARM05 : OK
(PID.TID 0000.0001)  INI_PARMS: finished reading file "data"
(PID.TID 0000.0001)  PACKAGES_BOOT: opening data.pkg
(PID.TID 0000.0001)  OPEN_COPY_DATA_FILE: opening file data.pkg
(PID.TID 0000.0001) // =======================================================
(PID.TID 0000.0001) // Parameter file "data.pkg"
(PID.TID 0000.0001) // =======================================================
(PID.TID 0000.0001) ># Packages
(PID.TID 0000.0001) > &PACKAGES
(PID.TID 0000.0001) > useEXF             = .TRUE.,
(PID.TID 0000.0001) > useCAL             = .TRUE.,
(PID.TID 0000.0001) > useGMRedi          = .TRUE.,
(PID.TID 0000.0001) > useSeaice          = .TRUE.,
(PID.TID 0000.0001) > useGGL90           = .TRUE.,
(PID.TID 0000.0001) > useSALT_PlUME      = .TRUE.,
(PID.TID 0000.0001) > useDiagnostics     = .TRUE.,
(PID.TID 0000.0001) > useECCO            = .TRUE.,
(PID.TID 0000.0001) > useCTRL            = .TRUE.,
(PID.TID 0000.0001) > useProfiles        = .TRUE.,
(PID.TID 0000.0001) > useAUTODIFF        = .FALSE.,
(PID.TID 0000.0001) > useSMOOTH          = .FALSE.,
(PID.TID 0000.0001) > useGrdchk          = .FALSE.,
(PID.TID 0000.0001) >#
(PID.TID 0000.0001) >#useSBO             = .TRUE.,
(PID.TID 0000.0001) >#useRBCS            = .TRUE.,
(PID.TID 0000.0001) >#useKPP             = .TRUE.,
(PID.TID 0000.0001) >#useThsice          = .TRUE.,
(PID.TID 0000.0001) >#useDOWN_SLOPE      = .TRUE.,
(PID.TID 0000.0001) >#useLayers          = .TRUE.,
(PID.TID 0000.0001) >#usePtracers        = .TRUE.,
(PID.TID 0000.0001) >#useBBL             = .TRUE.,
(PID.TID 0000.0001) > /
(PID.TID 0000.0001) 
(PID.TID 0000.0001)  PACKAGES_BOOT: finished reading data.pkg
(PID.TID 0000.0001)  PACKAGES_BOOT: On/Off package Summary
 --------  pkgs with a standard "usePKG" On/Off switch in "data.pkg":  --------
 pkg/ggl90                compiled   and   used ( useGGL90                 = T )
 pkg/gmredi               compiled   and   used ( useGMRedi                = T )
 pkg/cal                  compiled   and   used ( useCAL                   = T )
 pkg/exf                  compiled   and   used ( useEXF                   = T )
 pkg/autodiff             compiled but not used ( useAUTODIFF              = F )
 pkg/grdchk               compiled but not used ( useGrdchk                = F )
 pkg/smooth               compiled but not used ( useSMOOTH                = F )
 pkg/profiles             compiled   and   used ( usePROFILES              = T )
 pkg/ecco                 compiled   and   used ( useECCO                  = T )
 pkg/ctrl                 compiled   and   used ( useCTRL                  = T )
 pkg/sbo                  compiled but not used ( useSBO                   = F )
 pkg/seaice               compiled   and   used ( useSEAICE                = T )
 pkg/salt_plume           compiled   and   used ( useSALT_PLUME            = T )
 pkg/diagnostics          compiled   and   used ( useDiagnostics           = T )
 -------- pkgs without standard "usePKG" On/Off switch in "data.pkg":  --------
 pkg/generic_advdiff      compiled   and   used ( useGAD                   = T )
 pkg/mom_common           compiled   and   used ( momStepping              = T )
 pkg/mom_vecinv           compiled   and   used ( +vectorInvariantMomentum = T )
 pkg/monitor              compiled   and   used ( monitorFreq > 0.         = T )
 pkg/debug                compiled but not used ( debugMode                = F )
 pkg/exch2                compiled   and   used
 pkg/rw                   compiled   and   used
 pkg/mdsio                compiled   and   used
 pkg/autodiff             compiled   and   used
 pkg/cost                 compiled   and   used
(PID.TID 0000.0001)  PACKAGES_BOOT: End of package Summary
(PID.TID 0000.0001) 
(PID.TID 0000.0001) CAL_READPARMS: opening data.cal
(PID.TID 0000.0001)  OPEN_COPY_DATA_FILE: opening file data.cal
(PID.TID 0000.0001) // =======================================================
(PID.TID 0000.0001) // Parameter file "data.cal"
(PID.TID 0000.0001) // =======================================================
(PID.TID 0000.0001) >#
(PID.TID 0000.0001) ># *******************
(PID.TID 0000.0001) ># Calendar Parameters
(PID.TID 0000.0001) ># *******************
(PID.TID 0000.0001) > &CAL_NML
(PID.TID 0000.0001) > TheCalendar='gregorian',
(PID.TID 0000.0001) > calendarDumps=.TRUE.,
(PID.TID 0000.0001) ># TheCalendar='model',
(PID.TID 0000.0001) > startDate_1=19480101,
(PID.TID 0000.0001) > startDate_2=120000,
(PID.TID 0000.0001) > /
(PID.TID 0000.0001) 
(PID.TID 0000.0001) CAL_READPARMS: finished reading data.cal
(PID.TID 0000.0001) EXF_READPARMS: opening data.exf
(PID.TID 0000.0001)  OPEN_COPY_DATA_FILE: opening file data.exf
(PID.TID 0000.0001) // =======================================================
(PID.TID 0000.0001) // Parameter file "data.exf"
(PID.TID 0000.0001) // =======================================================
(PID.TID 0000.0001) ># *********************
(PID.TID 0000.0001) ># External Forcing Data
(PID.TID 0000.0001) ># *********************
(PID.TID 0000.0001) >#
(PID.TID 0000.0001) > &EXF_NML_01
(PID.TID 0000.0001) >#see MITgcm/verification/global_ocean.cs32x15/input.icedyn/data.exf
(PID.TID 0000.0001) > exf_albedo        = 0.066,
(PID.TID 0000.0001) > ht                = 10.,
(PID.TID 0000.0001) > ocean_emissivity  = 1.,
(PID.TID 0000.0001) > atmrho            = 1.22,
(PID.TID 0000.0001) > humid_fac         = .608,
(PID.TID 0000.0001) >#
(PID.TID 0000.0001) > exf_iprec         = 32,
(PID.TID 0000.0001) > useExfCheckRange  = .FALSE.,
(PID.TID 0000.0001) > useExfYearlyFields= .TRUE.,
(PID.TID 0000.0001) > useAtmWind        = .TRUE.,
(PID.TID 0000.0001) > /
(PID.TID 0000.0001) >#
(PID.TID 0000.0001) > &EXF_NML_02
(PID.TID 0000.0001) > uwindfile         = 'CORE2_u10m_6hrly_r2',
(PID.TID 0000.0001) > vwindfile         = 'CORE2_v10m_6hrly_r2',
(PID.TID 0000.0001) > atempfile         = 'CORE2_tmp10m_6hrly_r2',
(PID.TID 0000.0001) > aqhfile           = 'CORE2_spfh10m_6hrly_r2',
(PID.TID 0000.0001) > precipfile        = 'CORE2_rain_monthly_r2',
(PID.TID 0000.0001) > swdownfile        = 'CORE2_dsw_daily_r2',
(PID.TID 0000.0001) > lwdownfile        = 'CORE2_dlw_daily_r2',
(PID.TID 0000.0001) >#
(PID.TID 0000.0001) > ustressstartdate1   = 19470101,
(PID.TID 0000.0001) > ustressstartdate2   = 030000,
(PID.TID 0000.0001) > ustressperiod       = 21600.0,
(PID.TID 0000.0001) >#
(PID.TID 0000.0001) > vstressstartdate1   = 19470101,
(PID.TID 0000.0001) > vstressstartdate2   = 030000,
(PID.TID 0000.0001) > vstressperiod       = 21600.0,
(PID.TID 0000.0001) >#
(PID.TID 0000.0001) > atempstartdate1   = 19470101,
(PID.TID 0000.0001) > atempstartdate2   = 030000,
(PID.TID 0000.0001) > atempperiod       = 21600.0,
(PID.TID 0000.0001) >#
(PID.TID 0000.0001) > aqhstartdate1     = 19470101,
(PID.TID 0000.0001) > aqhstartdate2     = 030000,
(PID.TID 0000.0001) > aqhperiod         = 21600.0,
(PID.TID 0000.0001) >#
(PID.TID 0000.0001) > precipstartdate1  = 19470115,
(PID.TID 0000.0001) > precipstartdate2  = 120000,
(PID.TID 0000.0001) > precipperiod      = 2628000.0,
(PID.TID 0000.0001) >#or precipperiod = -12.,
(PID.TID 0000.0001) >#
(PID.TID 0000.0001) > runofffile        = 'CORE2_runoff_monthly_r2_SMOOTH',
(PID.TID 0000.0001) > runoffstartdate1  = 19470115,
(PID.TID 0000.0001) > runoffstartdate2  = 120000,
(PID.TID 0000.0001) > runoffperiod      = 2628000.0,
(PID.TID 0000.0001) >#
(PID.TID 0000.0001) > uwindstartdate1   = 19470101,
(PID.TID 0000.0001) > uwindstartdate2   = 030000,
(PID.TID 0000.0001) > uwindperiod       = 21600.0,
(PID.TID 0000.0001) >#
(PID.TID 0000.0001) > vwindstartdate1   = 19470101,
(PID.TID 0000.0001) > vwindstartdate2   = 030000,
(PID.TID 0000.0001) > vwindperiod       = 21600.0,
(PID.TID 0000.0001) >#
(PID.TID 0000.0001) > wspeedstartdate1   = 19470101,
(PID.TID 0000.0001) > wspeedstartdate2   = 120000,
(PID.TID 0000.0001) > wspeedperiod       = 21600.0,
(PID.TID 0000.0001) >#
(PID.TID 0000.0001) > swdownstartdate1  = 19470101,
(PID.TID 0000.0001) > swdownstartdate2  = 120000,
(PID.TID 0000.0001) > swdownperiod      = 86400.0,
(PID.TID 0000.0001) >#
(PID.TID 0000.0001) > lwdownstartdate1  = 19470101,
(PID.TID 0000.0001) > lwdownstartdate2  = 120000,
(PID.TID 0000.0001) > lwdownperiod      = 86400.0,
(PID.TID 0000.0001) >#
(PID.TID 0000.0001) > apressurestartdate1   = 19470101,
(PID.TID 0000.0001) > apressurestartdate2   = 120000,
(PID.TID 0000.0001) > apressureperiod       = 21600.0,
(PID.TID 0000.0001) >#
(PID.TID 0000.0001) > climsssfile       = 'SSS_WPv1_M_eccollc_90x50_pm05atl.bin',
(PID.TID 0000.0001) > climsssperiod     = -12.,
(PID.TID 0000.0001) ># climsssTauRelax   = 15768000.,
(PID.TID 0000.0001) > climsssTauRelax   = 25920000.,
(PID.TID 0000.0001) > /
(PID.TID 0000.0001) >#
(PID.TID 0000.0001) > &EXF_NML_03
(PID.TID 0000.0001) >#NOT FOR EIG exf_offset_atemp  = 273.3971,
(PID.TID 0000.0001) > exf_offset_atemp  = 273.15,
(PID.TID 0000.0001) > exf_inscal_runoff = 1.e-06,
(PID.TID 0000.0001) ># to compensate for sea level rise for nlfs/realFWF
(PID.TID 0000.0001) ># precip_exfremo_intercept = 1.073E-9,
(PID.TID 0000.0001) ># precip_exfremo_slope = -3.340E-18,
(PID.TID 0000.0001) > /
(PID.TID 0000.0001) >#
(PID.TID 0000.0001) > &EXF_NML_04
(PID.TID 0000.0001) > runoff_interpMethod = 0,
(PID.TID 0000.0001) > climsss_interpMethod = 0,
(PID.TID 0000.0001) >#
(PID.TID 0000.0001) > atemp_lon0        = 0.00D0,
(PID.TID 0000.0001) > atemp_lon_inc     = 1.875D0,
(PID.TID 0000.0001) > atemp_lat0        = -88.5420D0,
(PID.TID 0000.0001) > atemp_lat_inc     = 1.8888, 1.9000, 1.9024, 1.9034, 1.9039, 1.9042,
(PID.TID 0000.0001) >     1.9042, 1.9044, 1.9045, 1.9045, 1.9046, 1.9046, 1.9046, 1.9046,
(PID.TID 0000.0001) >     1.9047, 1.9046, 1.9047, 1.9047, 1.9047, 1.9047, 1.9047, 1.9047,
(PID.TID 0000.0001) >     1.9047, 1.9047, 1.9047, 1.9047, 1.9048, 1.9047, 1.9047, 1.9047,
(PID.TID 0000.0001) >     1.9047, 1.9048, 1.9047, 1.9047, 1.9048, 1.9047, 1.9047, 1.9048,
(PID.TID 0000.0001) >     1.9047, 1.9047, 1.9048, 1.9047, 1.9047, 1.9048, 1.9047, 1.9047,
(PID.TID 0000.0001) >     1.9048, 1.9047, 1.9047, 1.9048, 1.9047, 1.9047, 1.9048, 1.9047,
(PID.TID 0000.0001) >     1.9047, 1.9048, 1.9047, 1.9047, 1.9048, 1.9047, 1.9047, 1.9048,
(PID.TID 0000.0001) >     1.9047, 1.9047, 1.9047, 1.9047, 1.9048, 1.9047, 1.9047, 1.9047,
(PID.TID 0000.0001) >     1.9047, 1.9047, 1.9047, 1.9047, 1.9047, 1.9047, 1.9047, 1.9046,
(PID.TID 0000.0001) >     1.9047, 1.9046, 1.9046, 1.9046, 1.9046, 1.9045, 1.9045, 1.9044,
(PID.TID 0000.0001) >     1.9042, 1.9042, 1.9039, 1.9034, 1.9024, 1.9000, 1.8888, 1.8888,
(PID.TID 0000.0001) > atemp_nlon        = 192,
(PID.TID 0000.0001) > atemp_nlat        = 94,
(PID.TID 0000.0001) >#
(PID.TID 0000.0001) > aqh_lon0          = 0.00D0,
(PID.TID 0000.0001) > aqh_lon_inc       = 1.875D0,
(PID.TID 0000.0001) > aqh_lat0          = -88.5420D0,
(PID.TID 0000.0001) > aqh_lat_inc       = 1.8888, 1.9000, 1.9024, 1.9034, 1.9039, 1.9042,
(PID.TID 0000.0001) >     1.9042, 1.9044, 1.9045, 1.9045, 1.9046, 1.9046, 1.9046, 1.9046,
(PID.TID 0000.0001) >     1.9047, 1.9046, 1.9047, 1.9047, 1.9047, 1.9047, 1.9047, 1.9047,
(PID.TID 0000.0001) >     1.9047, 1.9047, 1.9047, 1.9047, 1.9048, 1.9047, 1.9047, 1.9047,
(PID.TID 0000.0001) >     1.9047, 1.9048, 1.9047, 1.9047, 1.9048, 1.9047, 1.9047, 1.9048,
(PID.TID 0000.0001) >     1.9047, 1.9047, 1.9048, 1.9047, 1.9047, 1.9048, 1.9047, 1.9047,
(PID.TID 0000.0001) >     1.9048, 1.9047, 1.9047, 1.9048, 1.9047, 1.9047, 1.9048, 1.9047,
(PID.TID 0000.0001) >     1.9047, 1.9048, 1.9047, 1.9047, 1.9048, 1.9047, 1.9047, 1.9048,
(PID.TID 0000.0001) >     1.9047, 1.9047, 1.9047, 1.9047, 1.9048, 1.9047, 1.9047, 1.9047,
(PID.TID 0000.0001) >     1.9047, 1.9047, 1.9047, 1.9047, 1.9047, 1.9047, 1.9047, 1.9046,
(PID.TID 0000.0001) >     1.9047, 1.9046, 1.9046, 1.9046, 1.9046, 1.9045, 1.9045, 1.9044,
(PID.TID 0000.0001) >     1.9042, 1.9042, 1.9039, 1.9034, 1.9024, 1.9000, 1.8888, 1.8888,
(PID.TID 0000.0001) > aqh_nlon          = 192,
(PID.TID 0000.0001) > aqh_nlat          = 94,
(PID.TID 0000.0001) >#
(PID.TID 0000.0001) > precip_lon0       = 0.00D0,
(PID.TID 0000.0001) > precip_lon_inc    = 1.875D0,
(PID.TID 0000.0001) > precip_lat0       = -88.5420D0,
(PID.TID 0000.0001) > precip_lat_inc    = 1.8888, 1.9000, 1.9024, 1.9034, 1.9039, 1.9042,
(PID.TID 0000.0001) >     1.9042, 1.9044, 1.9045, 1.9045, 1.9046, 1.9046, 1.9046, 1.9046,
(PID.TID 0000.0001) >     1.9047, 1.9046, 1.9047, 1.9047, 1.9047, 1.9047, 1.9047, 1.9047,
(PID.TID 0000.0001) >     1.9047, 1.9047, 1.9047, 1.9047, 1.9048, 1.9047, 1.9047, 1.9047,
(PID.TID 0000.0001) >     1.9047, 1.9048, 1.9047, 1.9047, 1.9048, 1.9047, 1.9047, 1.9048,
(PID.TID 0000.0001) >     1.9047, 1.9047, 1.9048, 1.9047, 1.9047, 1.9048, 1.9047, 1.9047,
(PID.TID 0000.0001) >     1.9048, 1.9047, 1.9047, 1.9048, 1.9047, 1.9047, 1.9048, 1.9047,
(PID.TID 0000.0001) >     1.9047, 1.9048, 1.9047, 1.9047, 1.9048, 1.9047, 1.9047, 1.9048,
(PID.TID 0000.0001) >     1.9047, 1.9047, 1.9047, 1.9047, 1.9048, 1.9047, 1.9047, 1.9047,
(PID.TID 0000.0001) >     1.9047, 1.9047, 1.9047, 1.9047, 1.9047, 1.9047, 1.9047, 1.9046,
(PID.TID 0000.0001) >     1.9047, 1.9046, 1.9046, 1.9046, 1.9046, 1.9045, 1.9045, 1.9044,
(PID.TID 0000.0001) >     1.9042, 1.9042, 1.9039, 1.9034, 1.9024, 1.9000, 1.8888, 1.8888,
(PID.TID 0000.0001) > precip_nlon       = 192,
(PID.TID 0000.0001) > precip_nlat       = 94,
(PID.TID 0000.0001) >#
(PID.TID 0000.0001) > uwind_lon0        = 0.00D0,
(PID.TID 0000.0001) > uwind_lon_inc     = 1.875D0,
(PID.TID 0000.0001) > uwind_lat0        = -88.5420D0,
(PID.TID 0000.0001) > uwind_lat_inc     = 1.8888, 1.9000, 1.9024, 1.9034, 1.9039, 1.9042,
(PID.TID 0000.0001) >     1.9042, 1.9044, 1.9045, 1.9045, 1.9046, 1.9046, 1.9046, 1.9046,
(PID.TID 0000.0001) >     1.9047, 1.9046, 1.9047, 1.9047, 1.9047, 1.9047, 1.9047, 1.9047,
(PID.TID 0000.0001) >     1.9047, 1.9047, 1.9047, 1.9047, 1.9048, 1.9047, 1.9047, 1.9047,
(PID.TID 0000.0001) >     1.9047, 1.9048, 1.9047, 1.9047, 1.9048, 1.9047, 1.9047, 1.9048,
(PID.TID 0000.0001) >     1.9047, 1.9047, 1.9048, 1.9047, 1.9047, 1.9048, 1.9047, 1.9047,
(PID.TID 0000.0001) >     1.9048, 1.9047, 1.9047, 1.9048, 1.9047, 1.9047, 1.9048, 1.9047,
(PID.TID 0000.0001) >     1.9047, 1.9048, 1.9047, 1.9047, 1.9048, 1.9047, 1.9047, 1.9048,
(PID.TID 0000.0001) >     1.9047, 1.9047, 1.9047, 1.9047, 1.9048, 1.9047, 1.9047, 1.9047,
(PID.TID 0000.0001) >     1.9047, 1.9047, 1.9047, 1.9047, 1.9047, 1.9047, 1.9047, 1.9046,
(PID.TID 0000.0001) >     1.9047, 1.9046, 1.9046, 1.9046, 1.9046, 1.9045, 1.9045, 1.9044,
(PID.TID 0000.0001) >     1.9042, 1.9042, 1.9039, 1.9034, 1.9024, 1.9000, 1.8888, 1.8888,
(PID.TID 0000.0001) > uwind_nlon        = 192,
(PID.TID 0000.0001) > uwind_nlat        = 94,
(PID.TID 0000.0001) >#
(PID.TID 0000.0001) > vwind_lon0        = 0.00D0,
(PID.TID 0000.0001) > vwind_lon_inc     = 1.875D0,
(PID.TID 0000.0001) > vwind_lat0        = -88.5420D0,
(PID.TID 0000.0001) > vwind_lat_inc     = 1.8888, 1.9000, 1.9024, 1.9034, 1.9039, 1.9042,
(PID.TID 0000.0001) >     1.9042, 1.9044, 1.9045, 1.9045, 1.9046, 1.9046, 1.9046, 1.9046,
(PID.TID 0000.0001) >     1.9047, 1.9046, 1.9047, 1.9047, 1.9047, 1.9047, 1.9047, 1.9047,
(PID.TID 0000.0001) >     1.9047, 1.9047, 1.9047, 1.9047, 1.9048, 1.9047, 1.9047, 1.9047,
(PID.TID 0000.0001) >     1.9047, 1.9048, 1.9047, 1.9047, 1.9048, 1.9047, 1.9047, 1.9048,
(PID.TID 0000.0001) >     1.9047, 1.9047, 1.9048, 1.9047, 1.9047, 1.9048, 1.9047, 1.9047,
(PID.TID 0000.0001) >     1.9048, 1.9047, 1.9047, 1.9048, 1.9047, 1.9047, 1.9048, 1.9047,
(PID.TID 0000.0001) >     1.9047, 1.9048, 1.9047, 1.9047, 1.9048, 1.9047, 1.9047, 1.9048,
(PID.TID 0000.0001) >     1.9047, 1.9047, 1.9047, 1.9047, 1.9048, 1.9047, 1.9047, 1.9047,
(PID.TID 0000.0001) >     1.9047, 1.9047, 1.9047, 1.9047, 1.9047, 1.9047, 1.9047, 1.9046,
(PID.TID 0000.0001) >     1.9047, 1.9046, 1.9046, 1.9046, 1.9046, 1.9045, 1.9045, 1.9044,
(PID.TID 0000.0001) >     1.9042, 1.9042, 1.9039, 1.9034, 1.9024, 1.9000, 1.8888, 1.8888,
(PID.TID 0000.0001) > vwind_nlon        = 192,
(PID.TID 0000.0001) > vwind_nlat        = 94,
(PID.TID 0000.0001) >#
(PID.TID 0000.0001) > swdown_lon0       = 0.00D0,
(PID.TID 0000.0001) > swdown_lon_inc    = 1.875D0,
(PID.TID 0000.0001) > swdown_lat0       = -88.5420D0,
(PID.TID 0000.0001) > swdown_lat_inc    = 1.8888, 1.9000, 1.9024, 1.9034, 1.9039, 1.9042,
(PID.TID 0000.0001) >     1.9042, 1.9044, 1.9045, 1.9045, 1.9046, 1.9046, 1.9046, 1.9046,
(PID.TID 0000.0001) >     1.9047, 1.9046, 1.9047, 1.9047, 1.9047, 1.9047, 1.9047, 1.9047,
(PID.TID 0000.0001) >     1.9047, 1.9047, 1.9047, 1.9047, 1.9048, 1.9047, 1.9047, 1.9047,
(PID.TID 0000.0001) >     1.9047, 1.9048, 1.9047, 1.9047, 1.9048, 1.9047, 1.9047, 1.9048,
(PID.TID 0000.0001) >     1.9047, 1.9047, 1.9048, 1.9047, 1.9047, 1.9048, 1.9047, 1.9047,
(PID.TID 0000.0001) >     1.9048, 1.9047, 1.9047, 1.9048, 1.9047, 1.9047, 1.9048, 1.9047,
(PID.TID 0000.0001) >     1.9047, 1.9048, 1.9047, 1.9047, 1.9048, 1.9047, 1.9047, 1.9048,
(PID.TID 0000.0001) >     1.9047, 1.9047, 1.9047, 1.9047, 1.9048, 1.9047, 1.9047, 1.9047,
(PID.TID 0000.0001) >     1.9047, 1.9047, 1.9047, 1.9047, 1.9047, 1.9047, 1.9047, 1.9046,
(PID.TID 0000.0001) >     1.9047, 1.9046, 1.9046, 1.9046, 1.9046, 1.9045, 1.9045, 1.9044,
(PID.TID 0000.0001) >     1.9042, 1.9042, 1.9039, 1.9034, 1.9024, 1.9000, 1.8888, 1.8888,
(PID.TID 0000.0001) > swdown_nlon       = 192,
(PID.TID 0000.0001) > swdown_nlat       = 94,
(PID.TID 0000.0001) >#
(PID.TID 0000.0001) > lwdown_lon0       = 0.00D0,
(PID.TID 0000.0001) > lwdown_lon_inc    = 1.875D0,
(PID.TID 0000.0001) > lwdown_lat0       = -88.5420D0,
(PID.TID 0000.0001) > lwdown_lat_inc    = 1.8888, 1.9000, 1.9024, 1.9034, 1.9039, 1.9042,
(PID.TID 0000.0001) >     1.9042, 1.9044, 1.9045, 1.9045, 1.9046, 1.9046, 1.9046, 1.9046,
(PID.TID 0000.0001) >     1.9047, 1.9046, 1.9047, 1.9047, 1.9047, 1.9047, 1.9047, 1.9047,
(PID.TID 0000.0001) >     1.9047, 1.9047, 1.9047, 1.9047, 1.9048, 1.9047, 1.9047, 1.9047,
(PID.TID 0000.0001) >     1.9047, 1.9048, 1.9047, 1.9047, 1.9048, 1.9047, 1.9047, 1.9048,
(PID.TID 0000.0001) >     1.9047, 1.9047, 1.9048, 1.9047, 1.9047, 1.9048, 1.9047, 1.9047,
(PID.TID 0000.0001) >     1.9048, 1.9047, 1.9047, 1.9048, 1.9047, 1.9047, 1.9048, 1.9047,
(PID.TID 0000.0001) >     1.9047, 1.9048, 1.9047, 1.9047, 1.9048, 1.9047, 1.9047, 1.9048,
(PID.TID 0000.0001) >     1.9047, 1.9047, 1.9047, 1.9047, 1.9048, 1.9047, 1.9047, 1.9047,
(PID.TID 0000.0001) >     1.9047, 1.9047, 1.9047, 1.9047, 1.9047, 1.9047, 1.9047, 1.9046,
(PID.TID 0000.0001) >     1.9047, 1.9046, 1.9046, 1.9046, 1.9046, 1.9045, 1.9045, 1.9044,
(PID.TID 0000.0001) >     1.9042, 1.9042, 1.9039, 1.9034, 1.9024, 1.9000, 1.8888, 1.8888,
(PID.TID 0000.0001) > lwdown_nlon       = 192,
(PID.TID 0000.0001) > lwdown_nlat       = 94,
(PID.TID 0000.0001) >#
(PID.TID 0000.0001) > apressure_lon0       = 0.00D0,
(PID.TID 0000.0001) > apressure_lon_inc    = 1.875D0,
(PID.TID 0000.0001) > apressure_lat0       = -88.5420D0,
(PID.TID 0000.0001) > apressure_lat_inc    = 1.8888, 1.9000, 1.9024, 1.9034, 1.9039, 1.9042,
(PID.TID 0000.0001) >     1.9042, 1.9044, 1.9045, 1.9045, 1.9046, 1.9046, 1.9046, 1.9046,
(PID.TID 0000.0001) >     1.9047, 1.9046, 1.9047, 1.9047, 1.9047, 1.9047, 1.9047, 1.9047,
(PID.TID 0000.0001) >     1.9047, 1.9047, 1.9047, 1.9047, 1.9048, 1.9047, 1.9047, 1.9047,
(PID.TID 0000.0001) >     1.9047, 1.9048, 1.9047, 1.9047, 1.9048, 1.9047, 1.9047, 1.9048,
(PID.TID 0000.0001) >     1.9047, 1.9047, 1.9048, 1.9047, 1.9047, 1.9048, 1.9047, 1.9047,
(PID.TID 0000.0001) >     1.9048, 1.9047, 1.9047, 1.9048, 1.9047, 1.9047, 1.9048, 1.9047,
(PID.TID 0000.0001) >     1.9047, 1.9048, 1.9047, 1.9047, 1.9048, 1.9047, 1.9047, 1.9048,
(PID.TID 0000.0001) >     1.9047, 1.9047, 1.9047, 1.9047, 1.9048, 1.9047, 1.9047, 1.9047,
(PID.TID 0000.0001) >     1.9047, 1.9047, 1.9047, 1.9047, 1.9047, 1.9047, 1.9047, 1.9046,
(PID.TID 0000.0001) >     1.9047, 1.9046, 1.9046, 1.9046, 1.9046, 1.9045, 1.9045, 1.9044,
(PID.TID 0000.0001) >     1.9042, 1.9042, 1.9039, 1.9034, 1.9024, 1.9000, 1.8888, 1.8888,
(PID.TID 0000.0001) > apressure_nlon       = 192,
(PID.TID 0000.0001) > apressure_nlat       = 94,
(PID.TID 0000.0001) > /
(PID.TID 0000.0001) 
(PID.TID 0000.0001) EXF_READPARMS: reading EXF_NML_01
(PID.TID 0000.0001) EXF_READPARMS: reading EXF_NML_02
(PID.TID 0000.0001) EXF_READPARMS: reading EXF_NML_03
(PID.TID 0000.0001) EXF_READPARMS: reading EXF_NML_04
(PID.TID 0000.0001) EXF_READPARMS: finished reading data.exf
(PID.TID 0000.0001)  GGL90_READPARMS: opening data.ggl90
(PID.TID 0000.0001)  OPEN_COPY_DATA_FILE: opening file data.ggl90
(PID.TID 0000.0001) // =======================================================
(PID.TID 0000.0001) // Parameter file "data.ggl90"
(PID.TID 0000.0001) // =======================================================
(PID.TID 0000.0001) ># =====================================================================
(PID.TID 0000.0001) ># | Parameters for Gaspar et al. (1990)'s TKE vertical mixing scheme  |
(PID.TID 0000.0001) ># =====================================================================
(PID.TID 0000.0001) > &GGL90_PARM01
(PID.TID 0000.0001) ># GGL90taveFreq = 345600000.,
(PID.TID 0000.0001) ># GGL90dumpFreq = 86400.,
(PID.TID 0000.0001) ># GGL90writeState=.FALSE.,
(PID.TID 0000.0001) ># GGL90diffTKEh=3.e3,
(PID.TID 0000.0001) > GGL90alpha=30.,
(PID.TID 0000.0001) ># GGL90TKEFile = 'TKE_init.bin',
(PID.TID 0000.0001) > GGL90TKEmin  = 1.e-7,
(PID.TID 0000.0001) > GGL90TKEbottom = 1.e-6,
(PID.TID 0000.0001) > mxlMaxFlag =2,
(PID.TID 0000.0001) > mxlSurfFlag=.TRUE.,
(PID.TID 0000.0001) > /
(PID.TID 0000.0001) 
(PID.TID 0000.0001)  GGL90_READPARMS ; starts to read GGL90_PARM01
(PID.TID 0000.0001)  GGL90_READPARMS: read GGL90_PARM01 : OK
(PID.TID 0000.0001)  GGL90_READPARMS: finished reading data.ggl90
(PID.TID 0000.0001) // =======================================================
(PID.TID 0000.0001) // GGL90 configuration
(PID.TID 0000.0001) // =======================================================
(PID.TID 0000.0001) GGL90dumpFreq =   /* GGL90 state write out interval ( s ). */
(PID.TID 0000.0001)                 0.000000000000000E+00
(PID.TID 0000.0001)     ;
(PID.TID 0000.0001) GGL90taveFreq =   /* GGL90 averaging interval ( s ). */
(PID.TID 0000.0001)                 1.234567000000000E+05
(PID.TID 0000.0001)     ;
(PID.TID 0000.0001) GGL90mixingMAPS =   /* GGL90 IO flag */
(PID.TID 0000.0001)                   F
(PID.TID 0000.0001)     ;
(PID.TID 0000.0001) GGL90writeState =   /* GGL90 IO flag */
(PID.TID 0000.0001)                   F
(PID.TID 0000.0001)     ;
(PID.TID 0000.0001) GGL90ck =   /* GGL90 viscosity parameter */
(PID.TID 0000.0001)                 1.000000000000000E-01
(PID.TID 0000.0001)     ;
(PID.TID 0000.0001) GGL90ceps =   /* GGL90 dissipation parameter */
(PID.TID 0000.0001)                 7.000000000000000E-01
(PID.TID 0000.0001)     ;
(PID.TID 0000.0001) GGL90alpha =   /* GGL90 TKE diffusivity parameter */
(PID.TID 0000.0001)                 3.000000000000000E+01
(PID.TID 0000.0001)     ;
(PID.TID 0000.0001) GGL90m2 =   /* GGL90 wind stress to vertical stress ratio */
(PID.TID 0000.0001)                 3.750000000000000E+00
(PID.TID 0000.0001)     ;
(PID.TID 0000.0001) GGL90TKEmin =   /* GGL90 minimum kinetic energy ( m^2/s^2 ) */
(PID.TID 0000.0001)                 1.000000000000000E-07
(PID.TID 0000.0001)     ;
(PID.TID 0000.0001) GGL90TKEsurfMin =   /* GGL90 minimum surface kinetic energy ( m^2/s^2 ) */
(PID.TID 0000.0001)                 1.000000000000000E-04
(PID.TID 0000.0001)     ;
(PID.TID 0000.0001) GGL90TKEbottom =   /* GGL90 bottom kinetic energy ( m^2/s^2 ) */
(PID.TID 0000.0001)                 1.000000000000000E-06
(PID.TID 0000.0001)     ;
(PID.TID 0000.0001) GGL90viscMax =   /* GGL90 upper limit for viscosity (m^2/s ) */
(PID.TID 0000.0001)                 1.000000000000000E+02
(PID.TID 0000.0001)     ;
(PID.TID 0000.0001) GGL90diffMax =   /* GGL90 upper limit for diffusivity (m^2/s ) */
(PID.TID 0000.0001)                 1.000000000000000E+02
(PID.TID 0000.0001)     ;
(PID.TID 0000.0001) GGL90diffTKEh =   /* GGL90 horizontal diffusivity for TKE ( m^2/s ) */
(PID.TID 0000.0001)                 0.000000000000000E+00
(PID.TID 0000.0001)     ;
(PID.TID 0000.0001) GGL90mixingLengthMin =   /* GGL90 minimum mixing length (m) */
(PID.TID 0000.0001)                 1.000000000000000E-08
(PID.TID 0000.0001)     ;
(PID.TID 0000.0001) mxlMaxFlag =   /* Flag for limiting mixing-length method */
(PID.TID 0000.0001)                       2
(PID.TID 0000.0001)     ;
(PID.TID 0000.0001) mxlSurfFlag =   /* GGL90 flag for near surface mixing */
(PID.TID 0000.0001)                   T
(PID.TID 0000.0001)     ;
(PID.TID 0000.0001) calcMeanVertShear = /* calc Mean of Vert.Shear (vs shear of Mean flow) */
(PID.TID 0000.0001)                   F
(PID.TID 0000.0001)     ;
(PID.TID 0000.0001) GGL90: GGL90TKEFile =
(PID.TID 0000.0001) GGL90_dirichlet =   /* GGL90 Boundary condition flag */
(PID.TID 0000.0001)                   T
(PID.TID 0000.0001)     ;
(PID.TID 0000.0001) // =======================================================
(PID.TID 0000.0001) // End of GGL90 config. summary
(PID.TID 0000.0001) // =======================================================
(PID.TID 0000.0001) 
(PID.TID 0000.0001)  GM_READPARMS: opening data.gmredi
(PID.TID 0000.0001)  OPEN_COPY_DATA_FILE: opening file data.gmredi
(PID.TID 0000.0001) // =======================================================
(PID.TID 0000.0001) // Parameter file "data.gmredi"
(PID.TID 0000.0001) // =======================================================
(PID.TID 0000.0001) ># GM+Redi package parameters:
(PID.TID 0000.0001) >#     GM_Small_Number  :: epsilon used in computing the slope
(PID.TID 0000.0001) >#     GM_slopeSqCutoff :: slope^2 cut-off value
(PID.TID 0000.0001) >
(PID.TID 0000.0001) >#-from MOM :
(PID.TID 0000.0001) ># GM_background_K: 	G & Mc.W  diffusion coefficient
(PID.TID 0000.0001) ># GM_maxSlope    :	max slope of isopycnals
(PID.TID 0000.0001) ># GM_Scrit       :	transition for scaling diffusion coefficient
(PID.TID 0000.0001) ># GM_Sd          :	half width scaling for diffusion coefficient
(PID.TID 0000.0001) ># GM_taper_scheme:	slope clipping or one of the tapering schemes
(PID.TID 0000.0001) ># GM_Kmin_horiz  :	horizontal diffusion minimum value
(PID.TID 0000.0001) >
(PID.TID 0000.0001) >#-Option parameters (needs to "define" options in GMREDI_OPTIONS.h")
(PID.TID 0000.0001) ># GM_isopycK     :	isopycnal diffusion coefficient (default=GM_background_K)
(PID.TID 0000.0001) ># GM_AdvForm     :	turn on GM Advective form       (default=Skew flux form)
(PID.TID 0000.0001) >
(PID.TID 0000.0001) > &GM_PARM01
(PID.TID 0000.0001) >  GM_Small_Number  = 1.D-20,
(PID.TID 0000.0001) >  GM_slopeSqCutoff = 1.D+08,
(PID.TID 0000.0001) >  GM_AdvForm         = .TRUE.,
(PID.TID 0000.0001) >  GM_isopycK         = 1.D+3,
(PID.TID 0000.0001) >  GM_background_K    = 1.D+3,
(PID.TID 0000.0001) >  GM_maxSlope        = 4.D-3,
(PID.TID 0000.0001) >  GM_taper_scheme    = 'gkw91',
(PID.TID 0000.0001) >  GM_Kmin_horiz      = 100.,
(PID.TID 0000.0001) >  GM_Scrit           = 4.D-3,
(PID.TID 0000.0001) >  GM_Sd              = 1.D-3,
(PID.TID 0000.0001) >#
(PID.TID 0000.0001) >###  GM_Visbeck_alpha   = 1.5D-2,
(PID.TID 0000.0001) >###  GM_Visbeck_alpha   = 0.D0,
(PID.TID 0000.0001) >###  GM_Visbeck_length  = 2.D+5,
(PID.TID 0000.0001) >###  GM_Visbeck_depth   = 1.D+3,
(PID.TID 0000.0001) >###  GM_Visbeck_maxval_K= 2.5D+3,
(PID.TID 0000.0001) > /
(PID.TID 0000.0001) >
(PID.TID 0000.0001) >
(PID.TID 0000.0001) 
(PID.TID 0000.0001)  GM_READPARMS: finished reading data.gmredi
(PID.TID 0000.0001) 
(PID.TID 0000.0001)  SEAICE_READPARMS: opening data.seaice
(PID.TID 0000.0001)  OPEN_COPY_DATA_FILE: opening file data.seaice
(PID.TID 0000.0001) // =======================================================
(PID.TID 0000.0001) // Parameter file "data.seaice"
(PID.TID 0000.0001) // =======================================================
(PID.TID 0000.0001) ># SEAICE parameters
(PID.TID 0000.0001) > &SEAICE_PARM01
(PID.TID 0000.0001) >#here I take the fields from pickup.seaice.previous.data that
(PID.TID 0000.0001) >#came out of experiment 2 ("relax") part 4 to initialize part 5
(PID.TID 0000.0001) >      AreaFile='siAREA.ini',
(PID.TID 0000.0001) >      HeffFile='siHEFF.ini',
(PID.TID 0000.0001) >      HsnowFile='siHSNOW.ini',
(PID.TID 0000.0001) >      uIceFile='siUICE.ini',
(PID.TID 0000.0001) >      vIceFile='siVICE.ini',
(PID.TID 0000.0001) >#the following is needed to recover old default values
(PID.TID 0000.0001) >#since PR116 (https://github.com/MITgcm/MITgcm/pull/116)
(PID.TID 0000.0001) >      SEAICE_drag=0.002,
(PID.TID 0000.0001) >      SEAICE_waterDrag=0.005344995140913508357982664,
(PID.TID 0000.0001) >      SEAICEetaZmethod=0,
(PID.TID 0000.0001) >      SEAICEscaleSurfStress=.FALSE.,
(PID.TID 0000.0001) >      SEAICEaddSnowMass=.FALSE.,
(PID.TID 0000.0001) >      SEAICE_OLx=0,
(PID.TID 0000.0001) >      SEAICE_OLy=0,
(PID.TID 0000.0001) >#
(PID.TID 0000.0001) >      SEAICEuseTILT=.FALSE.,
(PID.TID 0000.0001) >      SEAICEpresH0=2.,
(PID.TID 0000.0001) >      SEAICEpresPow0=1,
(PID.TID 0000.0001) >      SEAICEpresPow1=1,
(PID.TID 0000.0001) >      SEAICE_strength = 2.25e4,
(PID.TID 0000.0001) >      SEAICE_multDim=1,
(PID.TID 0000.0001) >      SEAICErestoreUnderIce=.TRUE.,
(PID.TID 0000.0001) >      SEAICE_area_max=0.97,
(PID.TID 0000.0001) >      SEAICE_salt0=4.,
(PID.TID 0000.0001) >      LSR_ERROR          = 2.e-4,
(PID.TID 0000.0001) >      SEAICEuseDYNAMICS  = .TRUE.,
(PID.TID 0000.0001) >      MIN_ATEMP          = -40.,
(PID.TID 0000.0001) >      MIN_TICE           = -40.,
(PID.TID 0000.0001) >      SEAICEadvScheme    = 33,
(PID.TID 0000.0001) >      SEAICEuseFluxForm = .TRUE.,
(PID.TID 0000.0001) >      SEAICEadvSnow      = .TRUE.,
(PID.TID 0000.0001) >#      SEAICEadvSalt      = .TRUE.,
(PID.TID 0000.0001) >      SEAICEdiffKhHeff   = 400.,
(PID.TID 0000.0001) >      SEAICEdiffKhArea   = 400.,
(PID.TID 0000.0001) >      SEAICEdiffKhSnow   = 400.,
(PID.TID 0000.0001) >#      SEAICEdiffKhSalt   = 400.,
(PID.TID 0000.0001) >      SEAICEuseFlooding  = .TRUE.,
(PID.TID 0000.0001) >      SEAICE_mcPheePiston= 3.858024691358025E-05,
(PID.TID 0000.0001) >      SEAICE_frazilFrac  = 1.,
(PID.TID 0000.0001) >      SEAICE_mcPheeTaper = 0.,
(PID.TID 0000.0001) >      SEAICE_areaLossFormula=2,
(PID.TID 0000.0001) >      SEAICEheatConsFix  = .TRUE.,
(PID.TID 0000.0001) >      SEAICE_tempFrz0    = -1.96,
(PID.TID 0000.0001) >      SEAICE_dTempFrz_dS = 0.,
(PID.TID 0000.0001) >      SEAICEuseMetricTerms = .TRUE.,
(PID.TID 0000.0001) >      SEAICE_no_slip     = .TRUE.,
(PID.TID 0000.0001) >      SEAICE_clipVelocities = .TRUE.,
(PID.TID 0000.0001) > /
(PID.TID 0000.0001) >#
(PID.TID 0000.0001) > &SEAICE_PARM02
(PID.TID 0000.0001) > /
(PID.TID 0000.0001) >
(PID.TID 0000.0001) 
(PID.TID 0000.0001)  SEAICE_READPARMS: finished reading data.seaice
(PID.TID 0000.0001) SALT_PLUME_READPARMS: opening data.salt_plume
(PID.TID 0000.0001)  OPEN_COPY_DATA_FILE: opening file data.salt_plume
(PID.TID 0000.0001) // =======================================================
(PID.TID 0000.0001) // Parameter file "data.salt_plume"
(PID.TID 0000.0001) // =======================================================
(PID.TID 0000.0001) > &SALT_PLUME_PARM01
(PID.TID 0000.0001) ># SaltPlumeCriterion = 0.4D0,
(PID.TID 0000.0001) > SPsalFRAC= 0.5D0,
(PID.TID 0000.0001) >#SPsalFRAC= 0.25D0,
(PID.TID 0000.0001) >#SPsalFRAC= 0.0D0,
(PID.TID 0000.0001) > /
(PID.TID 0000.0001) 
(PID.TID 0000.0001) SALT_PLUME_READPARMS: finished reading data.salt_plume
(PID.TID 0000.0001) OPTIM_READPARMS: opening data.optim
(PID.TID 0000.0001)  OPEN_COPY_DATA_FILE: opening file data.optim
(PID.TID 0000.0001) // =======================================================
(PID.TID 0000.0001) // Parameter file "data.optim"
(PID.TID 0000.0001) // =======================================================
(PID.TID 0000.0001) >#
(PID.TID 0000.0001) ># ********************************
(PID.TID 0000.0001) ># Off-line optimization parameters
(PID.TID 0000.0001) ># ********************************
(PID.TID 0000.0001) > &OPTIM
(PID.TID 0000.0001) > optimcycle=0,
(PID.TID 0000.0001) > /
(PID.TID 0000.0001) 
(PID.TID 0000.0001) OPTIM_READPARMS: finished reading data.optim
(PID.TID 0000.0001) CTRL_READPARMS: opening data.ctrl
(PID.TID 0000.0001)  OPEN_COPY_DATA_FILE: opening file data.ctrl
(PID.TID 0000.0001) // =======================================================
(PID.TID 0000.0001) // Parameter file "data.ctrl"
(PID.TID 0000.0001) // =======================================================
(PID.TID 0000.0001) ># *********************
(PID.TID 0000.0001) ># ECCO control variables
(PID.TID 0000.0001) ># *********************
(PID.TID 0000.0001) > &ctrl_nml
(PID.TID 0000.0001) > doSinglePrecTapelev=.TRUE.,
(PID.TID 0000.0001) > /
(PID.TID 0000.0001) >#
(PID.TID 0000.0001) ># *********************
(PID.TID 0000.0001) ># names for ctrl_pack/unpack
(PID.TID 0000.0001) ># *********************
(PID.TID 0000.0001) > &ctrl_packnames
(PID.TID 0000.0001) > /
(PID.TID 0000.0001) >#
(PID.TID 0000.0001) ># *********************
(PID.TID 0000.0001) ># names for CTRL_GENARR2D,3D CTRL_GENTIM2D
(PID.TID 0000.0001) ># *********************
(PID.TID 0000.0001) > &CTRL_NML_GENARR
(PID.TID 0000.0001) >#
(PID.TID 0000.0001) > xx_genarr3d_weight(1) = 'wt_ones.bin',
(PID.TID 0000.0001) > xx_genarr3d_file(1)='xx_kapgm',
(PID.TID 0000.0001) > mult_genarr3d(1) = 0.,
(PID.TID 0000.0001) >#
(PID.TID 0000.0001) > xx_genarr3d_weight(2) = 'wt_ones.bin',
(PID.TID 0000.0001) > xx_genarr3d_file(2)='xx_kapredi',
(PID.TID 0000.0001) > mult_genarr3d(2) = 0.,
(PID.TID 0000.0001) >#
(PID.TID 0000.0001) > xx_genarr3d_weight(3) = 'wt_ones.bin',
(PID.TID 0000.0001) > xx_genarr3d_file(3)='xx_diffkr',
(PID.TID 0000.0001) > mult_genarr3d(3) = 0.,
(PID.TID 0000.0001) >#
(PID.TID 0000.0001) > /
(PID.TID 0000.0001) >
(PID.TID 0000.0001) 
(PID.TID 0000.0001) CTRL_READPARMS: finished reading data.ctrl
(PID.TID 0000.0001) read-write ctrl files from current run directory
(PID.TID 0000.0001) COST_READPARMS: opening data.cost
(PID.TID 0000.0001)  OPEN_COPY_DATA_FILE: opening file data.cost
(PID.TID 0000.0001) // =======================================================
(PID.TID 0000.0001) // Parameter file "data.cost"
(PID.TID 0000.0001) // =======================================================
(PID.TID 0000.0001) >#
(PID.TID 0000.0001) >#
(PID.TID 0000.0001) ># ******************
(PID.TID 0000.0001) ># cost function
(PID.TID 0000.0001) ># ******************
(PID.TID 0000.0001) > &COST_NML
(PID.TID 0000.0001) > /
(PID.TID 0000.0001) 
(PID.TID 0000.0001) COST_READPARMS: finished reading data.cost
(PID.TID 0000.0001) ECCO_READPARMS: opening data.ecco
(PID.TID 0000.0001)  OPEN_COPY_DATA_FILE: opening file data.ecco
(PID.TID 0000.0001) // =======================================================
(PID.TID 0000.0001) // Parameter file "data.ecco"
(PID.TID 0000.0001) // =======================================================
(PID.TID 0000.0001) ># *******************
(PID.TID 0000.0001) ># ECCO cost functions
(PID.TID 0000.0001) ># *******************
(PID.TID 0000.0001) > &ECCO_COST_NML
(PID.TID 0000.0001) > /
(PID.TID 0000.0001) ># ***************************
(PID.TID 0000.0001) ># ECCO generic cost functions
(PID.TID 0000.0001) ># ***************************
(PID.TID 0000.0001) > &ECCO_GENCOST_NML
(PID.TID 0000.0001) > gencost_avgperiod(1)  = 'month',
(PID.TID 0000.0001) ># gencost_preproc(1,1)='clim',
(PID.TID 0000.0001) > gencost_barfile(1) = 'm_theta_mon',
(PID.TID 0000.0001) > gencost_datafile(1) = 'some_T_atlas.bin',
(PID.TID 0000.0001) > gencost_errfile(1) = 'some_T_sigma.bin',
(PID.TID 0000.0001) > gencost_name(1) = 'thetaatlas',
(PID.TID 0000.0001) > gencost_spmin(1) = -1.8,
(PID.TID 0000.0001) > gencost_spmax(1) = 40.,
(PID.TID 0000.0001) > gencost_spzero(1) = 0.,
(PID.TID 0000.0001) ># note: the gencost_is3d specification is no more needed
(PID.TID 0000.0001) > gencost_is3d(1)=.TRUE.,
(PID.TID 0000.0001) > gencost_outputlevel(1)=1,
(PID.TID 0000.0001) > mult_gencost(1) = 1.,
(PID.TID 0000.0001) >#
(PID.TID 0000.0001) > gencost_avgperiod(2)  = 'month',
(PID.TID 0000.0001) ># gencost_preproc(1,2)='clim',
(PID.TID 0000.0001) > gencost_barfile(2) = 'm_salt_mon',
(PID.TID 0000.0001) > gencost_datafile(2) = 'some_S_atlas.bin',
(PID.TID 0000.0001) > gencost_errfile(2) = 'some_S_sigma.bin',
(PID.TID 0000.0001) > gencost_name(2) = 'saltatlas',
(PID.TID 0000.0001) > gencost_spmin(2) = 25.,
(PID.TID 0000.0001) > gencost_spmax(2) = 40.,
(PID.TID 0000.0001) > gencost_spzero(2) = 0.,
(PID.TID 0000.0001) ># note: the gencost_is3d specification is no more needed
(PID.TID 0000.0001) > gencost_is3d(2)=.TRUE.,
(PID.TID 0000.0001) > gencost_outputlevel(2)=1,
(PID.TID 0000.0001) > mult_gencost(2) = 1.,
(PID.TID 0000.0001) > /
(PID.TID 0000.0001) >#
(PID.TID 0000.0001) 
(PID.TID 0000.0001) ECCO_READPARMS: finished reading #1: ecco_cost_nml
(PID.TID 0000.0001) ECCO_READPARMS: finished reading #2: ecco_gencost_nml
(PID.TID 0000.0001) ECCO_READPARMS: done
(PID.TID 0000.0001) PROFILES_READPARMS: opening data.profiles
(PID.TID 0000.0001)  OPEN_COPY_DATA_FILE: opening file data.profiles
(PID.TID 0000.0001) // =======================================================
(PID.TID 0000.0001) // Parameter file "data.profiles"
(PID.TID 0000.0001) // =======================================================
(PID.TID 0000.0001) >#
(PID.TID 0000.0001) ># ******************
(PID.TID 0000.0001) ># PROFILES cost function
(PID.TID 0000.0001) ># ******************
(PID.TID 0000.0001) > &PROFILES_NML
(PID.TID 0000.0001) > profilesDoGenGrid=.TRUE.,
(PID.TID 0000.0001) >#
(PID.TID 0000.0001) > /
(PID.TID 0000.0001) 
(PID.TID 0000.0001) PROFILES_READPARMS: finished reading data.profiles
(PID.TID 0000.0001)  DIAGNOSTICS_READPARMS: opening data.diagnostics
(PID.TID 0000.0001)  OPEN_COPY_DATA_FILE: opening file data.diagnostics
(PID.TID 0000.0001) // =======================================================
(PID.TID 0000.0001) // Parameter file "data.diagnostics"
(PID.TID 0000.0001) // =======================================================
(PID.TID 0000.0001) ># Diagnostic Package Choices
(PID.TID 0000.0001) >#--------------------
(PID.TID 0000.0001) >#  dumpAtLast (logical): always write output at the end of simulation (default=F)
(PID.TID 0000.0001) >#  diag_mnc   (logical): write to NetCDF files (default=useMNC)
(PID.TID 0000.0001) >#--for each output-stream:
(PID.TID 0000.0001) >#  fileName(n) : prefix of the output file name (max 80c long) for outp.stream n
(PID.TID 0000.0001) >#  frequency(n):< 0 : write snap-shot output every |frequency| seconds
(PID.TID 0000.0001) >#               > 0 : write time-average output every frequency seconds
(PID.TID 0000.0001) >#  timePhase(n)     : write at time = timePhase + multiple of |frequency|
(PID.TID 0000.0001) >#    averagingFreq  : frequency (in s) for periodic averaging interval
(PID.TID 0000.0001) >#    averagingPhase : phase     (in s) for periodic averaging interval
(PID.TID 0000.0001) >#    repeatCycle    : number of averaging intervals in 1 cycle
(PID.TID 0000.0001) >#  levels(:,n) : list of levels to write to file (Notes: declared as REAL)
(PID.TID 0000.0001) >#                when this entry is missing, select all common levels of this list
(PID.TID 0000.0001) >#  fields(:,n) : list of selected diagnostics fields (8.c) in outp.stream n
(PID.TID 0000.0001) >#                (see "available_diagnostics.log" file for the full list of diags)
(PID.TID 0000.0001) >#  missing_value(n) : missing value for real-type fields in output file "n"
(PID.TID 0000.0001) >#  fileFlags(n)     : specific code (8c string) for output file "n"
(PID.TID 0000.0001) >#--------------------
(PID.TID 0000.0001) > &DIAGNOSTICS_LIST
(PID.TID 0000.0001) >   dumpatlast = .TRUE.,
(PID.TID 0000.0001) >   diagMdsDir = 'diags',
(PID.TID 0000.0001) >#---
(PID.TID 0000.0001) >  frequency(1) = 2635200.0,
(PID.TID 0000.0001) >   fields(1:25,1) = 'ETAN    ','SIarea  ','SIheff  ','SIhsnow ',
(PID.TID 0000.0001) >#stuff that is not quite state variables (and may not be quite
(PID.TID 0000.0001) >#synchroneous) but are added here to reduce number of files
(PID.TID 0000.0001) >                 'DETADT2 ','PHIBOT  ','sIceLoad',
(PID.TID 0000.0001) >                 'MXLDEPTH','oceSPDep',
(PID.TID 0000.0001) >                 'SIatmQnt','SIatmFW ','oceQnet ','oceFWflx',
(PID.TID 0000.0001) >                 'oceTAUX ','oceTAUY ',
(PID.TID 0000.0001) >                 'ADVxHEFF','ADVyHEFF','DFxEHEFF','DFyEHEFF',
(PID.TID 0000.0001) >                 'ADVxSNOW','ADVySNOW','DFxESNOW','DFyESNOW',
(PID.TID 0000.0001) >                 'SIuice  ','SIvice  ',
(PID.TID 0000.0001) >   filename(1) = 'state_2d_set1',
(PID.TID 0000.0001) >#---
(PID.TID 0000.0001) >  frequency(2) = 2635200.0,
(PID.TID 0000.0001) >   fields(1:3,2) = 'THETA   ','SALT    ',
(PID.TID 0000.0001) >#stuff that is not quite state variables (and may not be quite
(PID.TID 0000.0001) >#synchroneous) but are added here to reduce file number
(PID.TID 0000.0001) >                 'DRHODR  ',
(PID.TID 0000.0001) >#                'KPPviscA','KPPdiffT','KPPdiffTS',
(PID.TID 0000.0001) >#                'GGL90TKE','GGL90Lmx','GGL90Prl',
(PID.TID 0000.0001) >#                'GGL90ArU','GGL90ArV','GGL90Kr ',
(PID.TID 0000.0001) >   filename(2) = 'state_3d_set1',
(PID.TID 0000.0001) >#---
(PID.TID 0000.0001) >  frequency(3) = 2635200.0,
(PID.TID 0000.0001) >   fields(1:5,3) = 'UVELMASS','VVELMASS','WVELMASS',
(PID.TID 0000.0001) >                 'GM_PsiX ','GM_PsiY ',
(PID.TID 0000.0001) >#uvel is approximately uvelmass divided by initial hfac, so we dont output the former
(PID.TID 0000.0001) >#                'UVEL    ','VVEL    ','WVEL     ',
(PID.TID 0000.0001) >#full 3D temperature fluxes : 'DFxE_TH ','DFyE_TH ','DFrE_TH ','DFrI_TH ','ADVx_TH ','ADVy_TH ','ADVr_TH ',
(PID.TID 0000.0001) >#but for present computations I only need the vertically integrated horizontal components (see trsp_3d_set2)
(PID.TID 0000.0001) >   filename(3) = 'trsp_3d_set1',
(PID.TID 0000.0001) >#---
(PID.TID 0000.0001) >  frequency(4) = 2635200.0,
(PID.TID 0000.0001) >   fields(1:8,4) = 'DFxE_TH ','DFyE_TH ','ADVx_TH ','ADVy_TH ',
(PID.TID 0000.0001) >                 'DFxE_SLT','DFyE_SLT','ADVx_SLT','ADVy_SLT',
(PID.TID 0000.0001) >   filename(4) = 'trsp_3d_set2',
(PID.TID 0000.0001) >#vertically integrate fields we only use to compute vertically integr.
(PID.TID 0000.0001) >#meridional transports (also omit vertical transports, both to save space)
(PID.TID 0000.0001) >#---
(PID.TID 0000.0001) >  frequency(5) = -2635200.0,
(PID.TID 0000.0001) >   fields(1:6,5) = 'ETAN    ','SIheff  ','SIhsnow ',
(PID.TID 0000.0001) >                 'SIarea  ','sIceLoad','PHIBOT  ',
(PID.TID 0000.0001) >#  filename(5) = 'budg2d_snap_set1',
(PID.TID 0000.0001) >   timePhase(5)= 0.,
(PID.TID 0000.0001) >   fileFlags(5) = 'D       ',
(PID.TID 0000.0001) >#---
(PID.TID 0000.0001) >  frequency(6) = -2635200.0,
(PID.TID 0000.0001) >   fields(1:2,6) = 'THETA   ','SALT    ',
(PID.TID 0000.0001) >#  filename(6) = 'budg2d_snap_set2',
(PID.TID 0000.0001) >   timePhase(6)= 0.,
(PID.TID 0000.0001) >   fileFlags(6) = 'DI      ',
(PID.TID 0000.0001) >#---
(PID.TID 0000.0001) >  frequency(7) = 2635200.0,
(PID.TID 0000.0001) >   fields(1:7,7) = 'oceFWflx','SIatmFW ','TFLUX   ','SItflux ',
(PID.TID 0000.0001) >                   'SFLUX   ','oceQsw  ','oceSPflx',
(PID.TID 0000.0001) >#  filename(7) = 'budg2d_zflux_set1',
(PID.TID 0000.0001) >   fileFlags(7) = 'D       ',
(PID.TID 0000.0001) >#---
(PID.TID 0000.0001) >  frequency(8) = 2635200.0,
(PID.TID 0000.0001) >   fields(1:13,8) ='UVELMASS','VVELMASS',
(PID.TID 0000.0001) >                 'ADVx_TH ','ADVy_TH ','DFxE_TH ','DFyE_TH ',
(PID.TID 0000.0001) >                 'ADVx_SLT','ADVy_SLT','DFxE_SLT','DFyE_SLT',
(PID.TID 0000.0001) >#the following are not transports but tendencies
(PID.TID 0000.0001) >                 'oceSPtnd','AB_gT   ','AB_gS   ',
(PID.TID 0000.0001) >#  filename(8) = 'budg2d_hflux_set2',
(PID.TID 0000.0001) >   fileFlags(8) = 'DI      ',
(PID.TID 0000.0001) >#---
(PID.TID 0000.0001) >  frequency(9) = 2635200.0,
(PID.TID 0000.0001) >   fields(1:8,9) ='ADVxHEFF','ADVyHEFF','DFxEHEFF','DFyEHEFF',
(PID.TID 0000.0001) >                 'ADVxSNOW','ADVySNOW','DFxESNOW','DFyESNOW',
(PID.TID 0000.0001) >#  filename(9) = 'budg2d_hflux_set1',
(PID.TID 0000.0001) >   fileFlags(9) = 'D       ',
(PID.TID 0000.0001) >#---
(PID.TID 0000.0001) ># this one is important because it activates the vertical advection diags
(PID.TID 0000.0001) >  frequency(10) = 2635200.0,
(PID.TID 0000.0001) >   fields(1:7,10) = 'ADVr_TH ','DFrE_TH ','DFrI_TH ',
(PID.TID 0000.0001) >                  'ADVr_SLT','DFrE_SLT','DFrI_SLT',
(PID.TID 0000.0001) >                  'WVELMASS',
(PID.TID 0000.0001) >#  filename(10) = 'budg2d_zflux_set3_11',
(PID.TID 0000.0001) >   levels(1, 10)= 11.,
(PID.TID 0000.0001) >   fileFlags(10) = 'D       ',
(PID.TID 0000.0001) >#---
(PID.TID 0000.0001) >  frequency(11) = 2635200.0,
(PID.TID 0000.0001) >   fields(1:10,11) ='SRELAX  ','TRELAX  ','WTHMASS ','WSLTMASS',
(PID.TID 0000.0001) >                 'oceSflux','oceQnet ','SIatmQnt',
(PID.TID 0000.0001) >                 'SIaaflux','SIsnPrcp','SIacSubl',
(PID.TID 0000.0001) >#  filename(11) = 'budg2d_zflux_set2',
(PID.TID 0000.0001) >   fileFlags(11) = 'D       ',
(PID.TID 0000.0001) >#---
(PID.TID 0000.0001) >  frequency(12) = 2635200.0,
(PID.TID 0000.0001) >   fields(1:13,12) ='UVELMASS','VVELMASS',
(PID.TID 0000.0001) >                 'ADVx_TH ','ADVy_TH ','DFxE_TH ','DFyE_TH ',
(PID.TID 0000.0001) >                 'ADVx_SLT','ADVy_SLT','DFxE_SLT','DFyE_SLT',
(PID.TID 0000.0001) >                 'oceSPtnd','AB_gT   ','AB_gS   ',
(PID.TID 0000.0001) >#  filename(12) = 'budg2d_hflux_set3_11',
(PID.TID 0000.0001) >   levels(1:40,12) = 11.,12.,13.,14.,15.,16.,17.,18.,19.,20.,
(PID.TID 0000.0001) >                     21.,22.,23.,24.,25.,26.,27.,28.,29.,30.,
(PID.TID 0000.0001) >                     31.,32.,33.,34.,35.,36.,37.,38.,39.,40.,
(PID.TID 0000.0001) >                     41.,42.,43.,44.,45.,46.,47.,48.,49.,50.,
(PID.TID 0000.0001) >   fileFlags(12) = 'DI      ',
(PID.TID 0000.0001) >#---
(PID.TID 0000.0001) >  frequency(13) = -2635200.0,
(PID.TID 0000.0001) >   fields(1:2,13) = 'THETA   ','SALT    ',
(PID.TID 0000.0001) >#  filename(13) = 'budg2d_snap_set3_11',
(PID.TID 0000.0001) >   timePhase(13)= 0.,
(PID.TID 0000.0001) >   levels(1:40,13) = 11.,12.,13.,14.,15.,16.,17.,18.,19.,20.,
(PID.TID 0000.0001) >                     21.,22.,23.,24.,25.,26.,27.,28.,29.,30.,
(PID.TID 0000.0001) >                     31.,32.,33.,34.,35.,36.,37.,38.,39.,40.,
(PID.TID 0000.0001) >                     41.,42.,43.,44.,45.,46.,47.,48.,49.,50.,
(PID.TID 0000.0001) >   fileFlags(13) = 'DI      ',
(PID.TID 0000.0001) >#---
(PID.TID 0000.0001) >  frequency(14) = 2635200.0,
(PID.TID 0000.0001) >   fields(1:8,14) = 'DFxE_TH ','DFyE_TH ','ADVx_TH ','ADVy_TH ',
(PID.TID 0000.0001) >                 'DFxE_SLT','DFyE_SLT','ADVx_SLT','ADVy_SLT',
(PID.TID 0000.0001) >#  filename(14) = 'trsp_2d_set1',
(PID.TID 0000.0001) >#vertically integrate fields we only use to compute vertically integr.
(PID.TID 0000.0001) >#meridional transports (also omit vertical transports, both to save space)
(PID.TID 0000.0001) >   fileFlags(14) = ' I      ',
(PID.TID 0000.0001) >#---
(PID.TID 0000.0001) >  frequency(15) = 2635200.0,
(PID.TID 0000.0001) >   fields(1:3,15) = 'RHOAnoma','PHIHYD  ','oceSPtnd',
(PID.TID 0000.0001) >#  filename(15) = 'state_3d_set2',
(PID.TID 0000.0001) >#---
(PID.TID 0000.0001) >  frequency(16) = 2635200.0,
(PID.TID 0000.0001) >   fields(1:7,16) = 'ADVr_TH ','DFrE_TH ','DFrI_TH ',
(PID.TID 0000.0001) >        'ADVr_SLT','DFrE_SLT','DFrI_SLT','WVELMASS',
(PID.TID 0000.0001) >#  filename(16) = 'trsp_3d_set3',
(PID.TID 0000.0001) >#---
(PID.TID 0000.0001) >  frequency(17) = 2635200.0,
(PID.TID 0000.0001) >   fields(1:7,17) = 'TFLUX   ','SItflux ','SFLUX   ',
(PID.TID 0000.0001) >        'oceQsw  ','oceSPflx','SIsnPrcp','SIacSubl',
(PID.TID 0000.0001) >#  filename(17) = 'state_2d_set2',
(PID.TID 0000.0001) >#---
(PID.TID 0000.0001) > /
(PID.TID 0000.0001) >
(PID.TID 0000.0001) >#--------------------
(PID.TID 0000.0001) ># Parameter for Diagnostics of per level statistics:
(PID.TID 0000.0001) >#--------------------
(PID.TID 0000.0001) >#  diagSt_mnc (logical): write stat-diags to NetCDF files (default=diag_mnc)
(PID.TID 0000.0001) >#  diagSt_regMaskFile : file containing the region-mask to read-in
(PID.TID 0000.0001) >#  nSetRegMskFile   : number of region-mask sets within the region-mask file
(PID.TID 0000.0001) >#  set_regMask(i)   : region-mask set-index that identifies the region "i"
(PID.TID 0000.0001) >#  val_regMask(i)   : region "i" identifier value in the region mask
(PID.TID 0000.0001) >#--for each output-stream:
(PID.TID 0000.0001) >#  stat_fName(n) : prefix of the output file name (max 80c long) for outp.stream n
(PID.TID 0000.0001) >#  stat_freq(n):< 0 : write snap-shot output every |stat_freq| seconds
(PID.TID 0000.0001) >#               > 0 : write time-average output every stat_freq seconds
(PID.TID 0000.0001) >#  stat_phase(n)    : write at time = stat_phase + multiple of |stat_freq|
(PID.TID 0000.0001) >#  stat_region(:,n) : list of "regions" (default: 1 region only=global)
(PID.TID 0000.0001) >#  stat_fields(:,n) : list of selected diagnostics fields (8.c) in outp.stream n
(PID.TID 0000.0001) >#                (see "available_diagnostics.log" file for the full list of diags)
(PID.TID 0000.0001) >#--------------------
(PID.TID 0000.0001) > &DIAG_STATIS_PARMS
(PID.TID 0000.0001) ># diagSt_regMaskFile='basin_masks_eccollc_90x50.bin',
(PID.TID 0000.0001) ># nSetRegMskFile=1,
(PID.TID 0000.0001) ># set_regMask(1)= 1,  1,  1,  1,  1,  1,  1,  1,  1,
(PID.TID 0000.0001) >#                 1,  1,  1,  1,  1,  1,  1,  1
(PID.TID 0000.0001) ># val_regMask(1)= 1., 2., 3., 4., 5., 6., 7., 8., 9.,
(PID.TID 0000.0001) >#                10.,11.,12.,13.,14.,15.,16.,17.
(PID.TID 0000.0001) >##---
(PID.TID 0000.0001) ># stat_fields(1:8,1) = 'ETAN    ','ETANSQ  ','DETADT2 ',
(PID.TID 0000.0001) >#                      'UVEL    ','VVEL    ','WVEL    ',
(PID.TID 0000.0001) >#                      'THETA   ','SALT    ',
(PID.TID 0000.0001) >#    stat_fname(1)= 'dynStDiag',
(PID.TID 0000.0001) >#     stat_freq(1)= 3153600.,
(PID.TID 0000.0001) ># stat_region(1,1)=  1, 2, 3, 4, 5, 6, 7, 8, 9,
(PID.TID 0000.0001) >#                   10,11,12,13,14,15,16,17
(PID.TID 0000.0001) >##---
(PID.TID 0000.0001) ># stat_fields(1:9,2) = 'oceTAUX ','oceTAUY ',
(PID.TID 0000.0001) >#                      'surForcT','surForcS','TFLUX   ','SFLUX   ',
(PID.TID 0000.0001) >#                      'oceQnet ','oceSflux','oceFWflx',
(PID.TID 0000.0001) >#    stat_fname(2)= 'surfStDiag',
(PID.TID 0000.0001) >#     stat_freq(2)= 3153600.,
(PID.TID 0000.0001) ># stat_region(1,2)=  1, 2, 3, 4, 5, 6, 7, 8, 9,
(PID.TID 0000.0001) >#                   10,11,12,13,14,15,16,17
(PID.TID 0000.0001) > /
(PID.TID 0000.0001) 
(PID.TID 0000.0001) S/R DIAGNOSTICS_READPARMS, read namelist "diagnostics_list": start
(PID.TID 0000.0001) S/R DIAGNOSTICS_READPARMS, read namelist "diagnostics_list": OK
(PID.TID 0000.0001) S/R DIAGNOSTICS_READPARMS, read namelist "DIAG_STATIS_PARMS": start
(PID.TID 0000.0001) S/R DIAGNOSTICS_READPARMS, read namelist "DIAG_STATIS_PARMS": OK
(PID.TID 0000.0001)  DIAGNOSTICS_READPARMS: global parameter summary:
(PID.TID 0000.0001)  dumpAtLast = /* always write time-ave diags at the end */
(PID.TID 0000.0001)                   T
(PID.TID 0000.0001)     ;
(PID.TID 0000.0001)  diag_mnc =   /* write NetCDF output files */
(PID.TID 0000.0001)                   F
(PID.TID 0000.0001)     ;
(PID.TID 0000.0001)  diagMdsDir = /* directory for mds diagnostics output */
(PID.TID 0000.0001)               'diags'
(PID.TID 0000.0001)     ;
(PID.TID 0000.0001)  diagMdsDirCreate = /* call mkdir to create diagMdsDir */
(PID.TID 0000.0001)                   T
(PID.TID 0000.0001)     ;
(PID.TID 0000.0001)  useMissingValue = /* put MissingValue where mask = 0 */
(PID.TID 0000.0001)                   F
(PID.TID 0000.0001)     ;
(PID.TID 0000.0001)  diagCG_maxIters = /* max number of iters in diag_cg2d */
(PID.TID 0000.0001)                     300
(PID.TID 0000.0001)     ;
(PID.TID 0000.0001)  diagCG_resTarget = /* residual target for diag_cg2d */
(PID.TID 0000.0001)                 1.000000000000000E-07
(PID.TID 0000.0001)     ;
(PID.TID 0000.0001)  diagCG_pcOffDFac = /* preconditioner off-diagonal factor */
(PID.TID 0000.0001)                 9.611687812379854E-01
(PID.TID 0000.0001)     ;
(PID.TID 0000.0001) -----------------------------------------------------
(PID.TID 0000.0001)  DIAGNOSTICS_READPARMS: active diagnostics summary:
(PID.TID 0000.0001) -----------------------------------------------------
(PID.TID 0000.0001) Creating Output Stream: state_2d_set1
(PID.TID 0000.0001) Output Frequency:    2635200.000000 ; Phase:           0.000000
(PID.TID 0000.0001)  Averaging Freq.:    2635200.000000 , Phase:           0.000000 , Cycle:   1
(PID.TID 0000.0001)  missing value: -9.990000000000E+02
(PID.TID 0000.0001)  Levels:    will be set later
(PID.TID 0000.0001)  Fields:    ETAN     SIarea   SIheff   SIhsnow  DETADT2  PHIBOT   sIceLoad MXLDEPTH oceSPDep SIatmQnt
(PID.TID 0000.0001)  Fields:    SIatmFW  oceQnet  oceFWflx oceTAUX  oceTAUY  ADVxHEFF ADVyHEFF DFxEHEFF DFyEHEFF ADVxSNOW
(PID.TID 0000.0001)  Fields:    ADVySNOW DFxESNOW DFyESNOW SIuice   SIvice
(PID.TID 0000.0001) Creating Output Stream: state_3d_set1
(PID.TID 0000.0001) Output Frequency:    2635200.000000 ; Phase:           0.000000
(PID.TID 0000.0001)  Averaging Freq.:    2635200.000000 , Phase:           0.000000 , Cycle:   1
(PID.TID 0000.0001)  missing value: -9.990000000000E+02
(PID.TID 0000.0001)  Levels:    will be set later
(PID.TID 0000.0001)  Fields:    THETA    SALT     DRHODR
(PID.TID 0000.0001) Creating Output Stream: trsp_3d_set1
(PID.TID 0000.0001) Output Frequency:    2635200.000000 ; Phase:           0.000000
(PID.TID 0000.0001)  Averaging Freq.:    2635200.000000 , Phase:           0.000000 , Cycle:   1
(PID.TID 0000.0001)  missing value: -9.990000000000E+02
(PID.TID 0000.0001)  Levels:    will be set later
(PID.TID 0000.0001)  Fields:    UVELMASS VVELMASS WVELMASS GM_PsiX  GM_PsiY
(PID.TID 0000.0001) Creating Output Stream: trsp_3d_set2
(PID.TID 0000.0001) Output Frequency:    2635200.000000 ; Phase:           0.000000
(PID.TID 0000.0001)  Averaging Freq.:    2635200.000000 , Phase:           0.000000 , Cycle:   1
(PID.TID 0000.0001)  missing value: -9.990000000000E+02
(PID.TID 0000.0001)  Levels:    will be set later
(PID.TID 0000.0001)  Fields:    DFxE_TH  DFyE_TH  ADVx_TH  ADVy_TH  DFxE_SLT DFyE_SLT ADVx_SLT ADVy_SLT
(PID.TID 0000.0001) -----------------------------------------------------
(PID.TID 0000.0001)  DIAGNOSTICS_READPARMS: statistics diags. summary:
(PID.TID 0000.0001) -----------------------------------------------------
(PID.TID 0000.0001) 
(PID.TID 0000.0001) SET_PARMS: done
 ==> SYSTEM CALL (from DIAGNOSTICS_INI_IO): > mkdir -p diags <
(PID.TID 0000.0001) 
(PID.TID 0000.0001) Enter INI_VERTICAL_GRID: setInterFDr=    T ; setCenterDr=    F
(PID.TID 0000.0001) tile:   4 ; Read from file tile001.mitgrid
(PID.TID 0000.0001)   => xC yC dxF dyF rA xG yG dxV dyU rAz dxC dyC rAw rAs dxG dyG
(PID.TID 0000.0001) tile:   7 ; Read from file tile001.mitgrid
(PID.TID 0000.0001)   => xC yC dxF dyF rA xG yG dxV dyU rAz dxC dyC rAw rAs dxG dyG
(PID.TID 0000.0001) tile:   8 ; Read from file tile001.mitgrid
(PID.TID 0000.0001)   => xC yC dxF dyF rA xG yG dxV dyU rAz dxC dyC rAw rAs dxG dyG
(PID.TID 0000.0001) tile:   9 ; Read from file tile001.mitgrid
(PID.TID 0000.0001)   => xC yC dxF dyF rA xG yG dxV dyU rAz dxC dyC rAw rAs dxG dyG
(PID.TID 0000.0001) tile:  10 ; Read from file tile001.mitgrid
(PID.TID 0000.0001)   => xC yC dxF dyF rA xG yG dxV dyU rAz dxC dyC rAw rAs dxG dyG
(PID.TID 0000.0001) tile:  11 ; Read from file tile001.mitgrid
(PID.TID 0000.0001)   => xC yC dxF dyF rA xG yG dxV dyU rAz dxC dyC rAw rAs dxG dyG
(PID.TID 0000.0001) tile:  12 ; Read from file tile001.mitgrid
(PID.TID 0000.0001)   => xC yC dxF dyF rA xG yG dxV dyU rAz dxC dyC rAw rAs dxG dyG
(PID.TID 0000.0001) tile:  13 ; Read from file tile001.mitgrid
(PID.TID 0000.0001)   => xC yC dxF dyF rA xG yG dxV dyU rAz dxC dyC rAw rAs dxG dyG
(PID.TID 0000.0001) tile:  14 ; Read from file tile001.mitgrid
(PID.TID 0000.0001)   => xC yC dxF dyF rA xG yG dxV dyU rAz dxC dyC rAw rAs dxG dyG
(PID.TID 0000.0001) tile:  15 ; Read from file tile001.mitgrid
(PID.TID 0000.0001)   => xC yC dxF dyF rA xG yG dxV dyU rAz dxC dyC rAw rAs dxG dyG
(PID.TID 0000.0001) tile:  16 ; Read from file tile001.mitgrid
(PID.TID 0000.0001)   => xC yC dxF dyF rA xG yG dxV dyU rAz dxC dyC rAw rAs dxG dyG
(PID.TID 0000.0001) tile:  17 ; Read from file tile001.mitgrid
(PID.TID 0000.0001)   => xC yC dxF dyF rA xG yG dxV dyU rAz dxC dyC rAw rAs dxG dyG
(PID.TID 0000.0001) %MON XC_max                       =   1.7997758946678E+02
(PID.TID 0000.0001) %MON XC_min                       =  -1.7998895680928E+02
(PID.TID 0000.0001) %MON XC_mean                      =  -6.8997670631350E+00
(PID.TID 0000.0001) %MON XC_sd                        =   1.0548127462941E+02
(PID.TID 0000.0001) %MON XG_max                       =   1.8000000000000E+02
(PID.TID 0000.0001) %MON XG_min                       =  -1.7999919444240E+02
(PID.TID 0000.0001) %MON XG_mean                      =  -6.3521159278861E+00
(PID.TID 0000.0001) %MON XG_sd                        =   1.0549598176576E+02
(PID.TID 0000.0001) %MON DXC_max                      =   1.1117680031365E+05
(PID.TID 0000.0001) %MON DXC_min                      =   1.3362789164732E+04
(PID.TID 0000.0001) %MON DXC_mean                     =   7.1345115143606E+04
(PID.TID 0000.0001) %MON DXC_sd                       =   2.6107013089865E+04
(PID.TID 0000.0001) %MON DXF_max                      =   1.1117680031365E+05
(PID.TID 0000.0001) %MON DXF_min                      =   1.3491575949394E+04
(PID.TID 0000.0001) %MON DXF_mean                     =   7.1334806791260E+04
(PID.TID 0000.0001) %MON DXF_sd                       =   2.6121349328995E+04
(PID.TID 0000.0001) %MON DXG_max                      =   1.1117747335204E+05
(PID.TID 0000.0001) %MON DXG_min                      =   1.0930409249570E+04
(PID.TID 0000.0001) %MON DXG_mean                     =   7.1313583950284E+04
(PID.TID 0000.0001) %MON DXG_sd                       =   2.6131714747840E+04
(PID.TID 0000.0001) %MON DXV_max                      =   1.1117747335204E+05
(PID.TID 0000.0001) %MON DXV_min                      =   9.4742518926426E+03
(PID.TID 0000.0001) %MON DXV_mean                     =   7.1323777998314E+04
(PID.TID 0000.0001) %MON DXV_sd                       =   2.6117603792432E+04
(PID.TID 0000.0001) %MON YC_max                       =   8.9739397429324E+01
(PID.TID 0000.0001) %MON YC_min                       =  -8.1637173529390E+01
(PID.TID 0000.0001) %MON YC_mean                      =  -5.9338515025079E-01
(PID.TID 0000.0001) %MON YC_sd                        =   5.1058908630085E+01
(PID.TID 0000.0001) %MON YG_max                       =   9.0000000000000E+01
(PID.TID 0000.0001) %MON YG_min                       =  -8.1805478609906E+01
(PID.TID 0000.0001) %MON YG_mean                      =  -5.7357831765458E-01
(PID.TID 0000.0001) %MON YG_sd                        =   5.1060174609345E+01
(PID.TID 0000.0001) %MON DYC_max                      =   1.1117680031365E+05
(PID.TID 0000.0001) %MON DYC_min                      =   1.3362789164732E+04
(PID.TID 0000.0001) %MON DYC_mean                     =   7.0982792089666E+04
(PID.TID 0000.0001) %MON DYC_sd                       =   2.6607387075348E+04
(PID.TID 0000.0001) %MON DYF_max                      =   1.1117680031365E+05
(PID.TID 0000.0001) %MON DYF_min                      =   1.3491575949394E+04
(PID.TID 0000.0001) %MON DYF_mean                     =   7.1000127494934E+04
(PID.TID 0000.0001) %MON DYF_sd                       =   2.6603606017547E+04
(PID.TID 0000.0001) %MON DYG_max                      =   1.1117747335204E+05
(PID.TID 0000.0001) %MON DYG_min                      =   1.0930409249570E+04
(PID.TID 0000.0001) %MON DYG_mean                     =   7.1022116512585E+04
(PID.TID 0000.0001) %MON DYG_sd                       =   2.6571715830406E+04
(PID.TID 0000.0001) %MON DYU_max                      =   1.1117747335204E+05
(PID.TID 0000.0001) %MON DYU_min                      =   9.4742518926426E+03
(PID.TID 0000.0001) %MON DYU_mean                     =   7.1004694583927E+04
(PID.TID 0000.0001) %MON DYU_sd                       =   2.6575655787476E+04
(PID.TID 0000.0001) %MON RA_max                       =   1.1896090857160E+10
(PID.TID 0000.0001) %MON RA_min                       =   2.1263387742345E+08
(PID.TID 0000.0001) %MON RA_mean                      =   5.6344293572480E+09
(PID.TID 0000.0001) %MON RA_sd                        =   3.5929461176606E+09
(PID.TID 0000.0001) %MON RAW_max                      =   1.1896090856781E+10
(PID.TID 0000.0001) %MON RAW_min                      =   1.7369571508711E+08
(PID.TID 0000.0001) %MON RAW_mean                     =   5.6355850434318E+09
(PID.TID 0000.0001) %MON RAW_sd                       =   3.5915487677190E+09
(PID.TID 0000.0001) %MON RAS_max                      =   1.1896090856781E+10
(PID.TID 0000.0001) %MON RAS_min                      =   1.7369571508711E+08
(PID.TID 0000.0001) %MON RAS_mean                     =   5.6320332286162E+09
(PID.TID 0000.0001) %MON RAS_sd                       =   3.5937184228135E+09
(PID.TID 0000.0001) %MON RAZ_max                      =   1.1891903479271E+10
(PID.TID 0000.0001) %MON RAZ_min                      =   1.0413402423292E+08
(PID.TID 0000.0001) %MON RAZ_mean                     =   5.6331824674695E+09
(PID.TID 0000.0001) %MON RAZ_sd                       =   3.5923307220197E+09
(PID.TID 0000.0001) %MON AngleCS_max                  =   1.0000000000000E+00
(PID.TID 0000.0001) %MON AngleCS_min                  =  -9.9996641938864E-01
(PID.TID 0000.0001) %MON AngleCS_mean                 =   4.0572930529500E-01
(PID.TID 0000.0001) %MON AngleCS_sd                   =   5.3874397836718E-01
(PID.TID 0000.0001) %MON AngleSN_max                  =   9.9996641938864E-01
(PID.TID 0000.0001) %MON AngleSN_min                  =  -1.0000000000000E+00
(PID.TID 0000.0001) %MON AngleSN_mean                 =  -4.9986154624599E-01
(PID.TID 0000.0001) %MON AngleSN_sd                   =   5.4339404779819E-01
(PID.TID 0000.0001) 
(PID.TID 0000.0001) // =======================================================
(PID.TID 0000.0001) // Calendar configuration >>> START <<<
(PID.TID 0000.0001) // =======================================================
(PID.TID 0000.0001) 
(PID.TID 0000.0001) modelstart = /* Start time of the model integration [s] */
(PID.TID 0000.0001)                 0.000000000000000E+00
(PID.TID 0000.0001)     ;
(PID.TID 0000.0001) modelend  = /* End time of the model integration [s] */
(PID.TID 0000.0001)                 2.880000000000000E+04
(PID.TID 0000.0001)     ;
(PID.TID 0000.0001) modelStep = /* Time interval for a model forward step [s] */
(PID.TID 0000.0001)                 3.600000000000000E+03
(PID.TID 0000.0001)     ;
(PID.TID 0000.0001) usingGregorianCalendar= /* Calendar Type: Gregorian Calendar */
(PID.TID 0000.0001)                   T
(PID.TID 0000.0001)     ;
(PID.TID 0000.0001) usingJulianCalendar = /* Calendar Type: Julian Calendar */
(PID.TID 0000.0001)                   F
(PID.TID 0000.0001)     ;
(PID.TID 0000.0001) usingNoLeapYearCal  = /* Calendar Type: without Leap Year */
(PID.TID 0000.0001)                   F
(PID.TID 0000.0001)     ;
(PID.TID 0000.0001) usingModelCalendar  = /* Calendar Type: Model Calendar */
(PID.TID 0000.0001)                   F
(PID.TID 0000.0001)     ;
(PID.TID 0000.0001) modelStartDate YYYYMMDD = /* Model start date YYYY-MM-DD */
(PID.TID 0000.0001)                19480101
(PID.TID 0000.0001)     ;
(PID.TID 0000.0001)   modelStartDate HHMMSS = /* Model start date HH-MM-SS  */
(PID.TID 0000.0001)                  120000
(PID.TID 0000.0001)     ;
(PID.TID 0000.0001) modelEndDate   YYYYMMDD = /* Model end date YYYY-MM-DD */
(PID.TID 0000.0001)                19480101
(PID.TID 0000.0001)     ;
(PID.TID 0000.0001)   modelEndDate   HHMMSS = /* Model end date HH-MM-SS  */
(PID.TID 0000.0001)                  200000
(PID.TID 0000.0001)     ;
(PID.TID 0000.0001) intyears = /* Number of calendar years affected by the integration */
(PID.TID 0000.0001)                       1
(PID.TID 0000.0001)     ;
(PID.TID 0000.0001) intmonths= /* Number of calendar months affected by the integration */
(PID.TID 0000.0001)                       1
(PID.TID 0000.0001)     ;
(PID.TID 0000.0001) intdays = /* Number of calendar days affected by the integration */
(PID.TID 0000.0001)                       1
(PID.TID 0000.0001)     ;
(PID.TID 0000.0001) modelIter0 = /* Base timestep number  */
(PID.TID 0000.0001)                       0
(PID.TID 0000.0001)     ;
(PID.TID 0000.0001) modelIterEnd = /* Final timestep number  */
(PID.TID 0000.0001)                       8
(PID.TID 0000.0001)     ;
(PID.TID 0000.0001) modelIntSteps= /* Number of model timesteps  */
(PID.TID 0000.0001)                       8
(PID.TID 0000.0001)     ;
(PID.TID 0000.0001) 
(PID.TID 0000.0001) // =======================================================
(PID.TID 0000.0001) // Calendar configuration  >>> END <<<
(PID.TID 0000.0001) // =======================================================
(PID.TID 0000.0001) 
(PID.TID 0000.0001) GAD_INIT_FIXED: GAD_OlMinSize=  2  0  2
(PID.TID 0000.0001) 
(PID.TID 0000.0001) // ===================================
(PID.TID 0000.0001) // GAD parameters :
(PID.TID 0000.0001) // ===================================
(PID.TID 0000.0001) tempAdvScheme =   /* Temp. Horiz.Advection scheme selector */
(PID.TID 0000.0001)                      33
(PID.TID 0000.0001)     ;
(PID.TID 0000.0001) tempVertAdvScheme =   /* Temp. Vert. Advection scheme selector */
(PID.TID 0000.0001)                      33
(PID.TID 0000.0001)     ;
(PID.TID 0000.0001) tempMultiDimAdvec =   /* use Muti-Dim Advec method for Temp */
(PID.TID 0000.0001)                   T
(PID.TID 0000.0001)     ;
(PID.TID 0000.0001) tempSOM_Advection = /* use 2nd Order Moment Advection for Temp */
(PID.TID 0000.0001)                   F
(PID.TID 0000.0001)     ;
(PID.TID 0000.0001) AdamsBashforthGt = /* apply Adams-Bashforth extrapolation on Gt */
(PID.TID 0000.0001)                   F
(PID.TID 0000.0001)     ;
(PID.TID 0000.0001) AdamsBashforth_T = /* apply Adams-Bashforth extrapolation on Temp */
(PID.TID 0000.0001)                   F
(PID.TID 0000.0001)     ;
(PID.TID 0000.0001) saltAdvScheme =   /* Salt. Horiz.advection scheme selector */
(PID.TID 0000.0001)                      33
(PID.TID 0000.0001)     ;
(PID.TID 0000.0001) saltVertAdvScheme =   /* Salt. Vert. Advection scheme selector */
(PID.TID 0000.0001)                      33
(PID.TID 0000.0001)     ;
(PID.TID 0000.0001) saltMultiDimAdvec =   /* use Muti-Dim Advec method for Salt */
(PID.TID 0000.0001)                   T
(PID.TID 0000.0001)     ;
(PID.TID 0000.0001) saltSOM_Advection = /* use 2nd Order Moment Advection for Salt */
(PID.TID 0000.0001)                   F
(PID.TID 0000.0001)     ;
(PID.TID 0000.0001) AdamsBashforthGs = /* apply Adams-Bashforth extrapolation on Gs */
(PID.TID 0000.0001)                   F
(PID.TID 0000.0001)     ;
(PID.TID 0000.0001) AdamsBashforth_S = /* apply Adams-Bashforth extrapolation on Salt */
(PID.TID 0000.0001)                   F
(PID.TID 0000.0001)     ;
(PID.TID 0000.0001) // ===================================
(PID.TID 0000.0001) 
(PID.TID 0000.0001) // =======================================================
(PID.TID 0000.0001) // External forcing (EXF) configuration >>> START <<<
(PID.TID 0000.0001) // =======================================================
(PID.TID 0000.0001) 
(PID.TID 0000.0001)  EXF general parameters:
(PID.TID 0000.0001) 
(PID.TID 0000.0001) exf_iprec = /* exf file precision */
(PID.TID 0000.0001)                      32
(PID.TID 0000.0001)     ;
(PID.TID 0000.0001) useExfYearlyFields = /* add extension _YEAR to input file names */
(PID.TID 0000.0001)                   T
(PID.TID 0000.0001)     ;
(PID.TID 0000.0001) twoDigitYear = /* use 2-digit year extension */
(PID.TID 0000.0001)                   F
(PID.TID 0000.0001)     ;
(PID.TID 0000.0001) useExfCheckRange = /* check for fields range */
(PID.TID 0000.0001)                   F
(PID.TID 0000.0001)     ;
(PID.TID 0000.0001) exf_output_interp = /* output directly interpolation result */
(PID.TID 0000.0001)                   F
(PID.TID 0000.0001)     ;
(PID.TID 0000.0001) diags_opOceWeighted = /* weight flux diags by open-ocean fraction */
(PID.TID 0000.0001)                   T
(PID.TID 0000.0001)     ;
(PID.TID 0000.0001) exf_debugLev = /* select EXF-debug printing level */
(PID.TID 0000.0001)                       1
(PID.TID 0000.0001)     ;
(PID.TID 0000.0001) exf_monFreq  = /* EXF monitor frequency [ s ] */
(PID.TID 0000.0001)                 3.600000000000000E+03
(PID.TID 0000.0001)     ;
(PID.TID 0000.0001) exf_adjMonSelect = /* select group of exf AD-variables to monitor */
(PID.TID 0000.0001)                       1
(PID.TID 0000.0001)     ;
(PID.TID 0000.0001) repeatPeriod = /* period for cycling forcing dataset [ s ] */
(PID.TID 0000.0001)                 0.000000000000000E+00
(PID.TID 0000.0001)     ;
(PID.TID 0000.0001) climTempFreeze= /* Minimum climatological temperature [deg.C] */
(PID.TID 0000.0001)                -1.900000000000000E+00
(PID.TID 0000.0001)     ;
(PID.TID 0000.0001) windStressMax = /* Maximum absolute windstress [ Pa ] */
(PID.TID 0000.0001)                 2.000000000000000E+00
(PID.TID 0000.0001)     ;
(PID.TID 0000.0001) stressIsOnCgrid = /* set u,v_stress on Arakawa C-grid */
(PID.TID 0000.0001)                   F
(PID.TID 0000.0001)     ;
(PID.TID 0000.0001) rotateStressOnAgrid = /* rotate u,v_stress on Arakawa A-grid */
(PID.TID 0000.0001)                   F
(PID.TID 0000.0001)     ;
(PID.TID 0000.0001) cen2kel = /* conversion of deg. Centigrade to Kelvin [K] */
(PID.TID 0000.0001)                 2.731500000000000E+02
(PID.TID 0000.0001)     ;
(PID.TID 0000.0001) gravity_mks= /* gravitational acceleration [m/s^2] */
(PID.TID 0000.0001)                 9.810000000000000E+00
(PID.TID 0000.0001)     ;
(PID.TID 0000.0001) atmrho =  /* mean atmospheric density [kg/m^3] */
(PID.TID 0000.0001)                 1.220000000000000E+00
(PID.TID 0000.0001)     ;
(PID.TID 0000.0001) atmcp =  /* mean atmospheric specific heat [J/kg/K] */
(PID.TID 0000.0001)                 1.005000000000000E+03
(PID.TID 0000.0001)     ;
(PID.TID 0000.0001) flamb =  /* latent heat of evaporation [J/kg] */
(PID.TID 0000.0001)                 2.500000000000000E+06
(PID.TID 0000.0001)     ;
(PID.TID 0000.0001) flami =  /* latent heat of pure-ice melting [J/kg] */
(PID.TID 0000.0001)                 3.340000000000000E+05
(PID.TID 0000.0001)     ;
(PID.TID 0000.0001) cvapor_fac = /* const. for Saturation calculation [?] */
(PID.TID 0000.0001)                 6.403800000000000E+05
(PID.TID 0000.0001)     ;
(PID.TID 0000.0001) cvapor_exp = /* const. for Saturation calculation [?] */
(PID.TID 0000.0001)                 5.107400000000000E+03
(PID.TID 0000.0001)     ;
(PID.TID 0000.0001) cvapor_fac_ice= /* const. for Saturation calculation [?] */
(PID.TID 0000.0001)                 1.163780000000000E+07
(PID.TID 0000.0001)     ;
(PID.TID 0000.0001) cvapor_exp_ice= /* const. for Saturation calculation [?] */
(PID.TID 0000.0001)                 5.897800000000000E+03
(PID.TID 0000.0001)     ;
(PID.TID 0000.0001) humid_fac = /* humidity coef. in virtual temp. [(kg/kg)^-1] */
(PID.TID 0000.0001)                 6.080000000000000E-01
(PID.TID 0000.0001)     ;
(PID.TID 0000.0001) gamma_blk = /* adiabatic lapse rate [?] */
(PID.TID 0000.0001)                 1.000000000000000E-02
(PID.TID 0000.0001)     ;
(PID.TID 0000.0001) saltsat = /* reduction of Qsat over salty water [-] */
(PID.TID 0000.0001)                 9.800000000000000E-01
(PID.TID 0000.0001)     ;
(PID.TID 0000.0001) noNegativeEvap = /* prevent negative Evaporation */
(PID.TID 0000.0001)                   F
(PID.TID 0000.0001)     ;
(PID.TID 0000.0001) sstExtrapol = /* extrapolation coeff from lev. 1 & 2 to surf [-] */
(PID.TID 0000.0001)                 0.000000000000000E+00
(PID.TID 0000.0001)     ;
(PID.TID 0000.0001) cDrag_1 = /* coef used in drag calculation [m/s] */
(PID.TID 0000.0001)                 2.700000000000000E-03
(PID.TID 0000.0001)     ;
(PID.TID 0000.0001) cDrag_2 = /* coef used in drag calculation [-] */
(PID.TID 0000.0001)                 1.420000000000000E-04
(PID.TID 0000.0001)     ;
(PID.TID 0000.0001) cDrag_3 = /* coef used in drag calculation [s/m] */
(PID.TID 0000.0001)                 7.640000000000000E-05
(PID.TID 0000.0001)     ;
(PID.TID 0000.0001) cDrag_8 = /* coef used in drag calculation [(s/m)^6] */
(PID.TID 0000.0001)                 1.234567000000000E+05
(PID.TID 0000.0001)     ;
(PID.TID 0000.0001) cDragMax = /* maximum drag (Large and Yeager, 2009) [-] */
(PID.TID 0000.0001)                 1.234567000000000E+05
(PID.TID 0000.0001)     ;
(PID.TID 0000.0001) umax = /* at maximum wind (Large and Yeager, 2009) [m/s] */
(PID.TID 0000.0001)                 1.234567000000000E+05
(PID.TID 0000.0001)     ;
(PID.TID 0000.0001) cStanton_1 = /* coef used in Stanton number calculation [-] */
(PID.TID 0000.0001)                 3.270000000000000E-02
(PID.TID 0000.0001)     ;
(PID.TID 0000.0001) cStanton_2 = /* coef used in Stanton number calculation [-] */
(PID.TID 0000.0001)                 1.800000000000000E-02
(PID.TID 0000.0001)     ;
(PID.TID 0000.0001) cDalton = /* Dalton number [-] */
(PID.TID 0000.0001)                 3.460000000000000E-02
(PID.TID 0000.0001)     ;
(PID.TID 0000.0001) exf_scal_BulkCdn= /* Drag coefficient scaling factor [-] */
(PID.TID 0000.0001)                 1.000000000000000E+00
(PID.TID 0000.0001)     ;
(PID.TID 0000.0001) zolmin = /* minimum stability parameter [?] */
(PID.TID 0000.0001)                -1.000000000000000E+02
(PID.TID 0000.0001)     ;
(PID.TID 0000.0001) psim_fac = /* coef used in turbulent fluxes calculation [-] */
(PID.TID 0000.0001)                 5.000000000000000E+00
(PID.TID 0000.0001)     ;
(PID.TID 0000.0001) zref =  /* reference height [ m ] */
(PID.TID 0000.0001)                 1.000000000000000E+01
(PID.TID 0000.0001)     ;
(PID.TID 0000.0001) hu =  /* height of mean wind [ m ] */
(PID.TID 0000.0001)                 1.000000000000000E+01
(PID.TID 0000.0001)     ;
(PID.TID 0000.0001) ht =  /* height of mean temperature [ m ] */
(PID.TID 0000.0001)                 1.000000000000000E+01
(PID.TID 0000.0001)     ;
(PID.TID 0000.0001) hq =  /* height of mean spec.humidity [ m ] */
(PID.TID 0000.0001)                 1.000000000000000E+01
(PID.TID 0000.0001)     ;
(PID.TID 0000.0001) uMin = /* minimum wind speed [m/s] */
(PID.TID 0000.0001)                 5.000000000000000E-01
(PID.TID 0000.0001)     ;
(PID.TID 0000.0001) useStabilityFct_overIce= /* transfert Coeffs over sea-ice depend on stability */
(PID.TID 0000.0001)                   F
(PID.TID 0000.0001)     ;
(PID.TID 0000.0001) exf_iceCd = /* drag coefficient over sea-ice (fixed) [-] */
(PID.TID 0000.0001)                 1.630000000000000E-03
(PID.TID 0000.0001)     ;
(PID.TID 0000.0001) exf_iceCe = /* transfert coeff. over sea-ice, for Evap (fixed) [-] */
(PID.TID 0000.0001)                 1.630000000000000E-03
(PID.TID 0000.0001)     ;
(PID.TID 0000.0001) exf_iceCh = /* transfert coeff. over sea-ice, Sens.Heat.(fixed)[-] */
(PID.TID 0000.0001)                 1.630000000000000E-03
(PID.TID 0000.0001)     ;
(PID.TID 0000.0001) exf_albedo =  /* Sea-water albedo [-] */
(PID.TID 0000.0001)                 6.600000000000000E-02
(PID.TID 0000.0001)     ;
(PID.TID 0000.0001) useExfZenAlbedo = /* Sea-water albedo varies with zenith angle */
(PID.TID 0000.0001)                   F
(PID.TID 0000.0001)     ;
(PID.TID 0000.0001) select_ZenAlbedo = /* Sea-water albedo computation method */
(PID.TID 0000.0001)                       0
(PID.TID 0000.0001)     ;
(PID.TID 0000.0001) useExfZenIncoming = /* compute incoming solar radiation */
(PID.TID 0000.0001)                   F
(PID.TID 0000.0001)     ;
(PID.TID 0000.0001) ocean_emissivity = /* longwave ocean-surface emissivity [-] */
(PID.TID 0000.0001)                 1.000000000000000E+00
(PID.TID 0000.0001)     ;
(PID.TID 0000.0001) ice_emissivity = /* longwave seaice emissivity [-] */
(PID.TID 0000.0001)                 9.500000000000000E-01
(PID.TID 0000.0001)     ;
(PID.TID 0000.0001) snow_emissivity = /* longwave snow  emissivity [-] */
(PID.TID 0000.0001)                 9.500000000000000E-01
(PID.TID 0000.0001)     ;
(PID.TID 0000.0001) 
(PID.TID 0000.0001)  EXF main CPP flags:
(PID.TID 0000.0001) 
(PID.TID 0000.0001) // USE_EXF_INTERPOLATION:              defined
(PID.TID 0000.0001) // ALLOW_ATM_TEMP:                     defined
(PID.TID 0000.0001) // ALLOW_ATM_WIND (useAtmWind):        defined
(PID.TID 0000.0001) // ALLOW_DOWNWARD_RADIATION:           defined
(PID.TID 0000.0001) // ALLOW_BULKFORMULAE:                 defined
(PID.TID 0000.0001) 
(PID.TID 0000.0001)    Zonal wind forcing starts at                      10800.
(PID.TID 0000.0001)    Zonal wind forcing period is                      21600.
(PID.TID 0000.0001)    Zonal wind forcing repeat-cycle is                    0.
(PID.TID 0000.0001)    Zonal wind forcing is read from file:
(PID.TID 0000.0001)    >> CORE2_u10m_6hrly_r2 <<
(PID.TID 0000.0001)    interpolate "uwind" (method= 12 ):
(PID.TID 0000.0001)    lon0=   0.00000, nlon=   192, lon_inc= 1.8750000
(PID.TID 0000.0001)    lat0= -88.54200, nlat=    94, inc(min,max)= 1.88880 1.90480
(PID.TID 0000.0001) 
(PID.TID 0000.0001)    Meridional wind forcing starts at                 10800.
(PID.TID 0000.0001)    Meridional wind forcing period is                 21600.
(PID.TID 0000.0001)    Meridional wind forcing repeat-cycle is               0.
(PID.TID 0000.0001)    Meridional wind forcing is read from file:
(PID.TID 0000.0001)    >> CORE2_v10m_6hrly_r2 <<
(PID.TID 0000.0001)    interpolate "vwind" (method= 22 ):
(PID.TID 0000.0001)    lon0=   0.00000, nlon=   192, lon_inc= 1.8750000
(PID.TID 0000.0001)    lat0= -88.54200, nlat=    94, inc(min,max)= 1.88880 1.90480
(PID.TID 0000.0001)     Interp. U & V comp. together: uvInterp_wind =    T
(PID.TID 0000.0001) 
(PID.TID 0000.0001)    Atmospheric temperature starts at                 10800.
(PID.TID 0000.0001)    Atmospheric temperature period is                 21600.
(PID.TID 0000.0001)    Atmospheric temperature repeat-cycle is               0.
(PID.TID 0000.0001)    Atmospheric temperature is read from file:
(PID.TID 0000.0001)    >> CORE2_tmp10m_6hrly_r2 <<
(PID.TID 0000.0001)    interpolate "atemp" (method=  1 ):
(PID.TID 0000.0001)    lon0=   0.00000, nlon=   192, lon_inc= 1.8750000
(PID.TID 0000.0001)    lat0= -88.54200, nlat=    94, inc(min,max)= 1.88880 1.90480
(PID.TID 0000.0001) 
(PID.TID 0000.0001)    Atmospheric specific humidity starts at           10800.
(PID.TID 0000.0001)    Atmospheric specific humidity period is           21600.
(PID.TID 0000.0001)    Atmospheric specific humidity rep-cycle is            0.
(PID.TID 0000.0001)    Atmospheric specific humidity is read from file:
(PID.TID 0000.0001)    >> CORE2_spfh10m_6hrly_r2 <<
(PID.TID 0000.0001)    interpolate "aqh" (method=  1 ):
(PID.TID 0000.0001)    lon0=   0.00000, nlon=   192, lon_inc= 1.8750000
(PID.TID 0000.0001)    lat0= -88.54200, nlat=    94, inc(min,max)= 1.88880 1.90480
(PID.TID 0000.0001) 
(PID.TID 0000.0001) // ALLOW_READ_TURBFLUXES:          NOT defined
(PID.TID 0000.0001) // EXF_READ_EVAP:                  NOT defined
(PID.TID 0000.0001) 
(PID.TID 0000.0001)    Precipitation data starts at                    1252800.
(PID.TID 0000.0001)    Precipitation data period is                    2628000.
(PID.TID 0000.0001)    Precipitation data repeat-cycle is                    0.
(PID.TID 0000.0001)    Precipitation data is read from file:
(PID.TID 0000.0001)    >> CORE2_rain_monthly_r2 <<
(PID.TID 0000.0001)    interpolate "precip" (method=  1 ):
(PID.TID 0000.0001)    lon0=   0.00000, nlon=   192, lon_inc= 1.8750000
(PID.TID 0000.0001)    lat0= -88.54200, nlat=    94, inc(min,max)= 1.88880 1.90480
(PID.TID 0000.0001) 
(PID.TID 0000.0001) // ALLOW_RUNOFF:                       defined
(PID.TID 0000.0001)    Runoff data starts at                           1252800.
(PID.TID 0000.0001)    Runoff data period is                           2628000.
(PID.TID 0000.0001)    Runoff data repeat-cycle is                           0.
(PID.TID 0000.0001)    Runoff data is read from file:
(PID.TID 0000.0001)    >> CORE2_runoff_monthly_r2_SMOOTH <<
(PID.TID 0000.0001)    assume "runoff" on model-grid (no interpolation)
(PID.TID 0000.0001) 
(PID.TID 0000.0001) // ALLOW_RUNOFTEMP:                NOT defined
(PID.TID 0000.0001) // ALLOW_SALTFLX:                      defined
(PID.TID 0000.0001) 
(PID.TID 0000.0001)    Downward shortwave flux starts at                 43200.
(PID.TID 0000.0001)    Downward shortwave flux period is                 86400.
(PID.TID 0000.0001)    Downward shortwave flux repeat-cycle is               0.
(PID.TID 0000.0001)    Downward shortwave flux is read from file:
(PID.TID 0000.0001)    >> CORE2_dsw_daily_r2 <<
(PID.TID 0000.0001)    interpolate "swdown" (method=  1 ):
(PID.TID 0000.0001)    lon0=   0.00000, nlon=   192, lon_inc= 1.8750000
(PID.TID 0000.0001)    lat0= -88.54200, nlat=    94, inc(min,max)= 1.88880 1.90480
(PID.TID 0000.0001) 
(PID.TID 0000.0001)    Downward longwave flux starts at                  43200.
(PID.TID 0000.0001)    Downward longwave flux period is                  86400.
(PID.TID 0000.0001)    Downward longwave flux repeat-cycle is                0.
(PID.TID 0000.0001)    Downward longwave flux is read from file:
(PID.TID 0000.0001)    >> CORE2_dlw_daily_r2 <<
(PID.TID 0000.0001)    interpolate "lwdown" (method=  1 ):
(PID.TID 0000.0001)    lon0=   0.00000, nlon=   192, lon_inc= 1.8750000
(PID.TID 0000.0001)    lat0= -88.54200, nlat=    94, inc(min,max)= 1.88880 1.90480
(PID.TID 0000.0001) 
(PID.TID 0000.0001) // =======================================================
(PID.TID 0000.0001) // External forcing (EXF) climatology configuration :
(PID.TID 0000.0001) // =======================================================
(PID.TID 0000.0001) 
(PID.TID 0000.0001) // ALLOW_CLIMSST_RELAXATION:           defined
(PID.TID 0000.0001)    climsst relaxation is NOT used
(PID.TID 0000.0001) 
(PID.TID 0000.0001) // ALLOW_CLIMSSS_RELAXATION:           defined
(PID.TID 0000.0001)    Climatological SSS period is                        -12.
(PID.TID 0000.0001)    Climatological SSS is read from file:
(PID.TID 0000.0001)    >> SSS_WPv1_M_eccollc_90x50_pm05atl.bin <<
(PID.TID 0000.0001)    assume "climsss" on model-grid (no interpolation)
(PID.TID 0000.0001) 
(PID.TID 0000.0001) // =======================================================
(PID.TID 0000.0001) // External forcing (EXF) configuration  >>> END <<<
(PID.TID 0000.0001) // =======================================================
(PID.TID 0000.0001) 
(PID.TID 0000.0001) etaday defined by gencost   0
(PID.TID 0000.0001) 
(PID.TID 0000.0001) // =======================================================
(PID.TID 0000.0001) // ECCO configuration >>> START <<<
(PID.TID 0000.0001) // =======================================================
(PID.TID 0000.0001) 
(PID.TID 0000.0001) gencost( 1) = thetaatlas
(PID.TID 0000.0001) -------------
(PID.TID 0000.0001)  data file = some_T_atlas.bin
(PID.TID 0000.0001)  model file = m_theta_mon
(PID.TID 0000.0001)  error file = some_T_sigma.bin
(PID.TID 0000.0001)  gencost_flag =  1
(PID.TID 0000.0001)  gencost_outputlevel =  1
(PID.TID 0000.0001)  gencost_kLev_select =  1
(PID.TID 0000.0001)  gencost_pointer3d =  1
(PID.TID 0000.0001) 
(PID.TID 0000.0001) gencost( 2) = saltatlas
(PID.TID 0000.0001) -------------
(PID.TID 0000.0001)  data file = some_S_atlas.bin
(PID.TID 0000.0001)  model file = m_salt_mon
(PID.TID 0000.0001)  error file = some_S_sigma.bin
(PID.TID 0000.0001)  gencost_flag =  1
(PID.TID 0000.0001)  gencost_outputlevel =  1
(PID.TID 0000.0001)  gencost_kLev_select =  1
(PID.TID 0000.0001)  gencost_pointer3d =  2
(PID.TID 0000.0001) 
(PID.TID 0000.0001) 
(PID.TID 0000.0001) 
(PID.TID 0000.0001) // =======================================================
(PID.TID 0000.0001) // ECCO configuration  >>> END <<<
(PID.TID 0000.0001) // =======================================================
(PID.TID 0000.0001) 
(PID.TID 0000.0001) 
(PID.TID 0000.0001) // =======================================================
(PID.TID 0000.0001) // insitu profiles model sampling >>> START <<<
(PID.TID 0000.0001) // =======================================================
(PID.TID 0000.0001) 
(PID.TID 0000.0001) 
(PID.TID 0000.0001)   profilesDir ./
(PID.TID 0000.0001)   profilesDoGenGrid      T
(PID.TID 0000.0001)   profilesDoNcOutput     F
(PID.TID 0000.0001) 
(PID.TID 0000.0001) 
(PID.TID 0000.0001) // =======================================================
(PID.TID 0000.0001) // insitu profiles model sampling >>> END <<<
(PID.TID 0000.0001) // =======================================================
(PID.TID 0000.0001) 
(PID.TID 0000.0001) // =======================================================
(PID.TID 0000.0001) // Seaice configuration (SEAICE_PARM01) >>> START <<<
(PID.TID 0000.0001) // =======================================================
(PID.TID 0000.0001) 
(PID.TID 0000.0001)    Seaice time stepping configuration   > START <
(PID.TID 0000.0001)    ----------------------------------------------
(PID.TID 0000.0001) SEAICE_deltaTtherm= /* thermodynamic timestep */
(PID.TID 0000.0001)                 3.600000000000000E+03
(PID.TID 0000.0001)     ;
(PID.TID 0000.0001) SEAICE_deltaTdyn  = /* dynamic timestep */
(PID.TID 0000.0001)                 3.600000000000000E+03
(PID.TID 0000.0001)     ;
(PID.TID 0000.0001) SEAICE_deltaTevp  = /* EVP timestep */
(PID.TID 0000.0001)                 1.234567000000000E+05
(PID.TID 0000.0001)     ;
(PID.TID 0000.0001) SEAICEuseBDF2  = /* use backw. differencing for mom. eq. */
(PID.TID 0000.0001)                   F
(PID.TID 0000.0001)     ;
(PID.TID 0000.0001) SEAICEupdateOceanStress= /* update Ocean surf. stress */
(PID.TID 0000.0001)                   T
(PID.TID 0000.0001)     ;
(PID.TID 0000.0001) SEAICErestoreUnderIce  = /* restore T and S under ice */
(PID.TID 0000.0001)                   T
(PID.TID 0000.0001)     ;
(PID.TID 0000.0001) 
(PID.TID 0000.0001)    Seaice dynamics configuration   > START <
(PID.TID 0000.0001)    ------------------------------------------
(PID.TID 0000.0001) SEAICEuseDYNAMICS = /* use dynamics */
(PID.TID 0000.0001)                   T
(PID.TID 0000.0001)     ;
(PID.TID 0000.0001) model grid type   = /* type of sea ice model grid */
(PID.TID 0000.0001)               'C-GRID'
(PID.TID 0000.0001)     ;
(PID.TID 0000.0001) SEAICEuseStrImpCpl = /* use strongly implicit coupling */
(PID.TID 0000.0001)                   F
(PID.TID 0000.0001)     ;
(PID.TID 0000.0001) SEAICEusePicardAsPrecon = /* Picard as preconditioner */
(PID.TID 0000.0001)                   F
(PID.TID 0000.0001)     ;
(PID.TID 0000.0001) SEAICEuseLSR      = /* use default Picard-LSR solver */
(PID.TID 0000.0001)                   T
(PID.TID 0000.0001)     ;
(PID.TID 0000.0001) SEAICEuseKrylov   = /* use Picard-Krylov solver */
(PID.TID 0000.0001)                   F
(PID.TID 0000.0001)     ;
(PID.TID 0000.0001) SEAICEuseEVP      = /* use EVP solver rather than LSR */
(PID.TID 0000.0001)                   F
(PID.TID 0000.0001)     ;
(PID.TID 0000.0001) SEAICEuseJFNK     = /* use JFNK solver */
(PID.TID 0000.0001)                   F
(PID.TID 0000.0001)     ;
(PID.TID 0000.0001) SEAICEuseFREEDRIFT = /* use free drift solution */
(PID.TID 0000.0001)                   F
(PID.TID 0000.0001)     ;
(PID.TID 0000.0001) OCEAN_drag        = /* air-ocean drag coefficient */
(PID.TID 0000.0001)                 1.000000000000000E-03
(PID.TID 0000.0001)     ;
(PID.TID 0000.0001) SEAICE_drag       = /* air-ice drag coefficient */
(PID.TID 0000.0001)                 2.000000000000000E-03
(PID.TID 0000.0001)     ;
(PID.TID 0000.0001) SEAICE_drag_south      = /* Southern Ocean SEAICE_drag */
(PID.TID 0000.0001)                 2.000000000000000E-03
(PID.TID 0000.0001)     ;
(PID.TID 0000.0001) SEAICE_waterDrag  = /* water-ice drag (no units) */
(PID.TID 0000.0001)                 5.344995140913508E-03
(PID.TID 0000.0001)     ;
(PID.TID 0000.0001) SEAICE_waterDrag_south = /* Southern Ocean waterDrag (no units) */
(PID.TID 0000.0001)                 5.344995140913508E-03
(PID.TID 0000.0001)     ;
(PID.TID 0000.0001) SEAICEdWatMin = /* minimum linear water-ice drag (in m/s) */
(PID.TID 0000.0001)                 2.500000000000000E-01
(PID.TID 0000.0001)     ;
(PID.TID 0000.0001) SEAICEuseTilt     = /* include surface tilt in dyna. */
(PID.TID 0000.0001)                   F
(PID.TID 0000.0001)     ;
(PID.TID 0000.0001) SEAICEuseTEM      = /* use truncated ellipse rheology */
(PID.TID 0000.0001)                   F
(PID.TID 0000.0001)     ;
(PID.TID 0000.0001) SEAICE_strength   = /* sea-ice strength Pstar */
(PID.TID 0000.0001)                 2.250000000000000E+04
(PID.TID 0000.0001)     ;
(PID.TID 0000.0001) SEAICE_cStar      = /* sea-ice strength parameter cStar */
(PID.TID 0000.0001)                 2.000000000000000E+01
(PID.TID 0000.0001)     ;
(PID.TID 0000.0001) SEAICEpressReplFac= /* press. replacement method factor */
(PID.TID 0000.0001)                 1.000000000000000E+00
(PID.TID 0000.0001)     ;
(PID.TID 0000.0001) SEAICE_tensilFac  = /* sea-ice tensile strength factor */
(PID.TID 0000.0001)                 0.000000000000000E+00
(PID.TID 0000.0001)     ;
(PID.TID 0000.0001) SEAICE_tensilDepth= /* crit. depth for tensile strength */
(PID.TID 0000.0001)                 0.000000000000000E+00
(PID.TID 0000.0001)     ;
(PID.TID 0000.0001) SEAICEpresH0   = /* sea-ice strength Heff threshold */
(PID.TID 0000.0001)                 2.000000000000000E+00
(PID.TID 0000.0001)     ;
(PID.TID 0000.0001) SEAICEpresPow0 = /* exponent for Heff<SEAICEpresH0 */
(PID.TID 0000.0001)                       1
(PID.TID 0000.0001)     ;
(PID.TID 0000.0001) SEAICEpresPow1 = /* exponent for Heff>SEAICEpresH0 */
(PID.TID 0000.0001)                       1
(PID.TID 0000.0001)     ;
(PID.TID 0000.0001) SEAICEetaZmethod = /* method computing eta at Z-point */
(PID.TID 0000.0001)                       0
(PID.TID 0000.0001)     ;
(PID.TID 0000.0001) SEAICE_zetaMaxFac = /* factor for upper viscosity bound */
(PID.TID 0000.0001)                 2.500000000000000E+08
(PID.TID 0000.0001)     ;
(PID.TID 0000.0001) SEAICE_zetaMin    = /* lower bound for viscosity */
(PID.TID 0000.0001)                 0.000000000000000E+00
(PID.TID 0000.0001)     ;
(PID.TID 0000.0001) SEAICE_eccen    = /* elliptical yield curve eccent */
(PID.TID 0000.0001)                 2.000000000000000E+00
(PID.TID 0000.0001)     ;
(PID.TID 0000.0001) SEAICEstressFactor    = /* wind stress scaling factor */
(PID.TID 0000.0001)                 1.000000000000000E+00
(PID.TID 0000.0001)     ;
(PID.TID 0000.0001) SEAICE_airTurnAngle    = /* air-ice turning angle */
(PID.TID 0000.0001)                 0.000000000000000E+00
(PID.TID 0000.0001)     ;
(PID.TID 0000.0001) SEAICE_waterTurnAngle  = /* ice-water turning angle */
(PID.TID 0000.0001)                 0.000000000000000E+00
(PID.TID 0000.0001)     ;
(PID.TID 0000.0001) SEAICEuseMetricTerms = /* use metric terms */
(PID.TID 0000.0001)                   T
(PID.TID 0000.0001)     ;
(PID.TID 0000.0001) SEAICE_no_slip    = /* no slip boundary conditions */
(PID.TID 0000.0001)                   T
(PID.TID 0000.0001)     ;
(PID.TID 0000.0001) SEAICE_2ndOrderBC = /* 2nd order no slip boundary conditions */
(PID.TID 0000.0001)                   F
(PID.TID 0000.0001)     ;
(PID.TID 0000.0001) SEAICE_clipVeloctities = /* impose max. vels. */
(PID.TID 0000.0001)                   T
(PID.TID 0000.0001)     ;
(PID.TID 0000.0001) useHB87stressCoupling  = /* altern. ice-ocean stress */
(PID.TID 0000.0001)                   F
(PID.TID 0000.0001)     ;
(PID.TID 0000.0001) SEAICEscaleSurfStress  = /* scale atm. and ocean-surface stress with AREA */
(PID.TID 0000.0001)                   F
(PID.TID 0000.0001)     ;
(PID.TID 0000.0001) SEAICE_maskRHS    = /* mask RHS of solver */
(PID.TID 0000.0001)                   F
(PID.TID 0000.0001)     ;
(PID.TID 0000.0001) SEAICEaddSnowMass = /* add snow mass to seaiceMassC/U/V */
(PID.TID 0000.0001)                   F
(PID.TID 0000.0001)     ;
(PID.TID 0000.0001) LSR_mixIniGuess = /* mix free-drift sol. into LSR initial Guess */
(PID.TID 0000.0001)                       0
(PID.TID 0000.0001)     ;
(PID.TID 0000.0001) SEAICE_LSRrelaxU  = /* LSR solver: relaxation parameter */
(PID.TID 0000.0001)                 9.500000000000000E-01
(PID.TID 0000.0001)     ;
(PID.TID 0000.0001) SEAICE_LSRrelaxV  = /* LSR solver: relaxation parameter */
(PID.TID 0000.0001)                 9.500000000000000E-01
(PID.TID 0000.0001)     ;
(PID.TID 0000.0001) LSR_ERROR         = /* sets accuracy of LSR solver */
(PID.TID 0000.0001)                 2.000000000000000E-04
(PID.TID 0000.0001)     ;
(PID.TID 0000.0001) SOLV_NCHECK       = /* test interval for LSR solver */
(PID.TID 0000.0001)                       2
(PID.TID 0000.0001)     ;
(PID.TID 0000.0001) SEAICEuseMultiTileSolver = /* use full domain tri-diag solver */
(PID.TID 0000.0001)                   F
(PID.TID 0000.0001)     ;
(PID.TID 0000.0001) SEAICE_OLx = /* overlap for LSR/preconditioner */
(PID.TID 0000.0001)                       0
(PID.TID 0000.0001)     ;
(PID.TID 0000.0001) SEAICE_OLy = /* overlap for LSR/preconditioner */
(PID.TID 0000.0001)                       0
(PID.TID 0000.0001)     ;
(PID.TID 0000.0001) SEAICEnonLinIterMax = /* max. number of nonlinear solver steps */
(PID.TID 0000.0001)                       2
(PID.TID 0000.0001)     ;
(PID.TID 0000.0001) SEAICElinearIterMax = /* max. number of linear solver steps */
(PID.TID 0000.0001)                     500
(PID.TID 0000.0001)     ;
(PID.TID 0000.0001) SEAICEnonLinTol     = /* non-linear solver tolerance */
(PID.TID 0000.0001)                 0.000000000000000E+00
(PID.TID 0000.0001)     ;
(PID.TID 0000.0001) 
(PID.TID 0000.0001)    Seaice advection diffusion config,   > START <
(PID.TID 0000.0001)    -----------------------------------------------
(PID.TID 0000.0001) SEAICEmomAdvection = /* advect sea ice momentum */
(PID.TID 0000.0001)                   F
(PID.TID 0000.0001)     ;
(PID.TID 0000.0001) SEAICEadvHeff = /* advect effective ice thickness */
(PID.TID 0000.0001)                   T
(PID.TID 0000.0001)     ;
(PID.TID 0000.0001) SEAICEadvArea = /* advect fractional ice area */
(PID.TID 0000.0001)                   T
(PID.TID 0000.0001)     ;
(PID.TID 0000.0001) SEAICEadvSnow = /* advect snow layer together with ice */
(PID.TID 0000.0001)                   T
(PID.TID 0000.0001)     ;
(PID.TID 0000.0001) SEAICEadvScheme   = /* advection scheme for ice */
(PID.TID 0000.0001)                      33
(PID.TID 0000.0001)     ;
(PID.TID 0000.0001) SEAICEadvSchArea   = /* advection scheme for area */
(PID.TID 0000.0001)                      33
(PID.TID 0000.0001)     ;
(PID.TID 0000.0001) SEAICEadvSchHeff   = /* advection scheme for thickness */
(PID.TID 0000.0001)                      33
(PID.TID 0000.0001)     ;
(PID.TID 0000.0001) SEAICEadvSchSnow   = /* advection scheme for snow */
(PID.TID 0000.0001)                      33
(PID.TID 0000.0001)     ;
(PID.TID 0000.0001) SEAICEdiffKhArea   = /* diffusivity (m^2/s) for area */
(PID.TID 0000.0001)                 4.000000000000000E+02
(PID.TID 0000.0001)     ;
(PID.TID 0000.0001) SEAICEdiffKhHeff   = /* diffusivity (m^2/s) for heff */
(PID.TID 0000.0001)                 4.000000000000000E+02
(PID.TID 0000.0001)     ;
(PID.TID 0000.0001) SEAICEdiffKhSnow   = /* diffusivity (m^2/s) for snow */
(PID.TID 0000.0001)                 4.000000000000000E+02
(PID.TID 0000.0001)     ;
(PID.TID 0000.0001) DIFF1             = /* parameter used in advect.F [m/s] */
(PID.TID 0000.0001)                 0.000000000000000E+00
(PID.TID 0000.0001)     ;
(PID.TID 0000.0001) 
(PID.TID 0000.0001)    Seaice thermodynamics configuration   > START <
(PID.TID 0000.0001)    -----------------------------------------------
(PID.TID 0000.0001) SEAICE_rhoIce     = /* density of sea ice (kg/m3) */
(PID.TID 0000.0001)                 9.100000000000000E+02
(PID.TID 0000.0001)     ;
(PID.TID 0000.0001) SEAICE_rhoSnow    = /* density of snow (kg/m3) */
(PID.TID 0000.0001)                 3.300000000000000E+02
(PID.TID 0000.0001)     ;
(PID.TID 0000.0001) SEAICE_rhoAir     = /* density of air (kg/m3) */
(PID.TID 0000.0001)                 1.220000000000000E+00
(PID.TID 0000.0001)     ;
(PID.TID 0000.0001) usePW79thermodynamics  = /* default 0-layer TD */
(PID.TID 0000.0001)                   T
(PID.TID 0000.0001)     ;
(PID.TID 0000.0001) SEAICE_lhEvap     = /* latent heat of evaporation */
(PID.TID 0000.0001)                 2.500000000000000E+06
(PID.TID 0000.0001)     ;
(PID.TID 0000.0001) SEAICE_lhFusion   = /* latent heat of fusion */
(PID.TID 0000.0001)                 3.340000000000000E+05
(PID.TID 0000.0001)     ;
(PID.TID 0000.0001) SEAICE_mcPheePiston = /* turbulent flux "piston velocity" a la McPhee (m/s) */
(PID.TID 0000.0001)                 3.858024691358025E-05
(PID.TID 0000.0001)     ;
(PID.TID 0000.0001) SEAICE_mcPheeTaper = /* tapering of turbulent flux (0.< <1.) for AREA=1. */
(PID.TID 0000.0001)                 0.000000000000000E+00
(PID.TID 0000.0001)     ;
(PID.TID 0000.0001) SEAICE_mcPheeStepFunc = /* replace linear tapering with step funct. */
(PID.TID 0000.0001)                   F
(PID.TID 0000.0001)     ;
(PID.TID 0000.0001) SEAICE_frazilFrac = /* frazil (T<tempFrz) to seaice conversion rate (0.< <1.) */
(PID.TID 0000.0001)                 1.000000000000000E+00
(PID.TID 0000.0001)     ;
(PID.TID 0000.0001) SEAICE_tempFrz0   = /* freezing temp. of sea water (intercept) */
(PID.TID 0000.0001)                -1.960000000000000E+00
(PID.TID 0000.0001)     ;
(PID.TID 0000.0001) SEAICE_dTempFrz_dS= /* freezing temp. of sea water (slope) */
(PID.TID 0000.0001)                 0.000000000000000E+00
(PID.TID 0000.0001)     ;
(PID.TID 0000.0001) SEAICE_growMeltByConv  = /* grow,melt by vert. conv. */
(PID.TID 0000.0001)                   F
(PID.TID 0000.0001)     ;
(PID.TID 0000.0001) SEAICE_doOpenWaterGrowth = /* grow by open water */
(PID.TID 0000.0001)                   T
(PID.TID 0000.0001)     ;
(PID.TID 0000.0001) SEAICE_doOpenWaterMelt = /* melt by open water */
(PID.TID 0000.0001)                   F
(PID.TID 0000.0001)     ;
(PID.TID 0000.0001) SEAICE_areaGainFormula = /* ice cover gain formula (1,2)*/
(PID.TID 0000.0001)                       1
(PID.TID 0000.0001)     1=from growth by ATM
(PID.TID 0000.0001)     2=from predicted growth by ATM
(PID.TID 0000.0001)     ;
(PID.TID 0000.0001) SEAICE_areaLossFormula = /* ice cover loss formula (1,2)*/
(PID.TID 0000.0001)                       2
(PID.TID 0000.0001)     1=from all but only melt conributions by ATM and OCN
(PID.TID 0000.0001)     2=from net melt-grow>0 by ATM and OCN
(PID.TID 0000.0001)     3=from predicted melt by ATM
(PID.TID 0000.0001)     ;
(PID.TID 0000.0001) HO                = /* nominal thickness of new ice */
(PID.TID 0000.0001)                 5.000000000000000E-01
(PID.TID 0000.0001)     ;
(PID.TID 0000.0001) HO_south               = /* Southern Ocean HO */
(PID.TID 0000.0001)                 5.000000000000000E-01
(PID.TID 0000.0001)     ;
(PID.TID 0000.0001) SEAICE_area_max        = /* set to les than 1. to mimic open leads */
(PID.TID 0000.0001)                 9.700000000000000E-01
(PID.TID 0000.0001)     ;
(PID.TID 0000.0001) SEAICE_salt0   = /* constant sea ice salinity */
(PID.TID 0000.0001)                 4.000000000000000E+00
(PID.TID 0000.0001)     ;
(PID.TID 0000.0001) SEAICE_salinityTracer = /* test SITR varia. salinity */
(PID.TID 0000.0001)                   F
(PID.TID 0000.0001)     ;
(PID.TID 0000.0001) SEAICEuseFlooding = /* turn submerged snow into ice */
(PID.TID 0000.0001)                   T
(PID.TID 0000.0001)     ;
(PID.TID 0000.0001) 
(PID.TID 0000.0001)    Seaice air-sea fluxes configuration,   > START <
(PID.TID 0000.0001)    -----------------------------------------------
(PID.TID 0000.0001) SEAICEheatConsFix  = /* accound for ocn<->seaice advect. heat flux */
(PID.TID 0000.0001)                   T
(PID.TID 0000.0001)     ;
(PID.TID 0000.0001) SEAICE_multDim    = /* number of ice categories (1 or 7) */
(PID.TID 0000.0001)                       1
(PID.TID 0000.0001)     ;
(PID.TID 0000.0001) SEAICE_PDF        = /* sea-ice distribution (-) */
(PID.TID 0000.0001)                 1.000000000000000E+00,      /* K =  1 */
(PID.TID 0000.0001)     6 @  0.000000000000000E+00              /* K =  2:  7 */
(PID.TID 0000.0001)     ;
(PID.TID 0000.0001) IMAX_TICE         = /* iterations for ice surface temp */
(PID.TID 0000.0001)                      10
(PID.TID 0000.0001)     ;
(PID.TID 0000.0001) postSolvTempIter= /* flux calculation after surf. temp iter */
(PID.TID 0000.0001)                       2
(PID.TID 0000.0001)     ;
(PID.TID 0000.0001) SEAICE_dryIceAlb  = /* winter albedo */
(PID.TID 0000.0001)                 7.500000000000000E-01
(PID.TID 0000.0001)     ;
(PID.TID 0000.0001) SEAICE_wetIceAlb  = /* summer albedo */
(PID.TID 0000.0001)                 6.600000000000000E-01
(PID.TID 0000.0001)     ;
(PID.TID 0000.0001) SEAICE_drySnowAlb = /* dry snow albedo */
(PID.TID 0000.0001)                 8.400000000000000E-01
(PID.TID 0000.0001)     ;
(PID.TID 0000.0001) SEAICE_wetSnowAlb = /* wet snow albedo */
(PID.TID 0000.0001)                 7.000000000000000E-01
(PID.TID 0000.0001)     ;
(PID.TID 0000.0001) SEAICE_dryIceAlb_south = /* Southern Ocean dryIceAlb */
(PID.TID 0000.0001)                 7.500000000000000E-01
(PID.TID 0000.0001)     ;
(PID.TID 0000.0001) SEAICE_wetIceAlb_south = /* Southern Ocean wetIceAlb */
(PID.TID 0000.0001)                 6.600000000000000E-01
(PID.TID 0000.0001)     ;
(PID.TID 0000.0001) SEAICE_drySnowAlb_south= /* Southern Ocean drySnowAlb */
(PID.TID 0000.0001)                 8.400000000000000E-01
(PID.TID 0000.0001)     ;
(PID.TID 0000.0001) SEAICE_wetSnowAlb_south= /* Southern Ocean wetSnowAlb */
(PID.TID 0000.0001)                 7.000000000000000E-01
(PID.TID 0000.0001)     ;
(PID.TID 0000.0001) SEAICE_wetAlbTemp= /* Temp (o.C) threshold for wet-albedo */
(PID.TID 0000.0001)                -1.000000000000000E-03
(PID.TID 0000.0001)     ;
(PID.TID 0000.0001) SEAICE_snow_emiss = /* snow emissivity */
(PID.TID 0000.0001)                 9.500000000000000E-01
(PID.TID 0000.0001)     ;
(PID.TID 0000.0001) SEAICE_ice_emiss = /* seaice emissivity */
(PID.TID 0000.0001)                 9.500000000000000E-01
(PID.TID 0000.0001)     ;
(PID.TID 0000.0001) SEAICE_cpAir      = /* heat capacity of air */
(PID.TID 0000.0001)                 1.005000000000000E+03
(PID.TID 0000.0001)     ;
(PID.TID 0000.0001) SEAICE_dalton     = /* constant dalton number */
(PID.TID 0000.0001)                 1.750000000000000E-03
(PID.TID 0000.0001)     ;
(PID.TID 0000.0001) SEAICE_iceConduct = /* sea-ice conductivity */
(PID.TID 0000.0001)                 2.165600000000000E+00
(PID.TID 0000.0001)     ;
(PID.TID 0000.0001) SEAICE_snowConduct= /* snow conductivity */
(PID.TID 0000.0001)                 3.100000000000000E-01
(PID.TID 0000.0001)     ;
(PID.TID 0000.0001) SEAICE_snowThick  = /* cutoff snow thickness (for albedo) */
(PID.TID 0000.0001)                 1.500000000000000E-01
(PID.TID 0000.0001)     ;
(PID.TID 0000.0001) SEAICE_shortwave  = /* penetration shortwave radiation */
(PID.TID 0000.0001)                 3.000000000000000E-01
(PID.TID 0000.0001)     ;
(PID.TID 0000.0001) useMaykutSatVapPoly = /* use Maykut Polynomial for Sat.Vap.Pr */
(PID.TID 0000.0001)                   F
(PID.TID 0000.0001)     ;
(PID.TID 0000.0001) MIN_ATEMP         = /* minimum air temperature */
(PID.TID 0000.0001)                -4.000000000000000E+01
(PID.TID 0000.0001)     ;
(PID.TID 0000.0001) MIN_LWDOWN        = /* minimum downward longwave */
(PID.TID 0000.0001)                 6.000000000000000E+01
(PID.TID 0000.0001)     ;
(PID.TID 0000.0001) MIN_TICE          = /* minimum ice temperature */
(PID.TID 0000.0001)                -4.000000000000000E+01
(PID.TID 0000.0001)     ;
(PID.TID 0000.0001) 
(PID.TID 0000.0001)    Seaice initialization and IO config.,   > START <
(PID.TID 0000.0001)    -------------------------------------------------
(PID.TID 0000.0001) SEAICE_initialHEFF= /* initial sea-ice thickness */
(PID.TID 0000.0001)                 0.000000000000000E+00
(PID.TID 0000.0001)     ;
(PID.TID 0000.0001) AreaFile = /* Initial ice concentration File */
(PID.TID 0000.0001)               'siAREA.ini'
(PID.TID 0000.0001)     ;
(PID.TID 0000.0001) HeffFile = /* Initial effective ice thickness File */
(PID.TID 0000.0001)               'siHEFF.ini'
(PID.TID 0000.0001)     ;
(PID.TID 0000.0001) HsnowFile = /* Initial snow thickness File */
(PID.TID 0000.0001)               'siHSNOW.ini'
(PID.TID 0000.0001)     ;
(PID.TID 0000.0001) uIceFile = /* Initial U-ice velocity File */
(PID.TID 0000.0001)               'siUICE.ini'
(PID.TID 0000.0001)     ;
(PID.TID 0000.0001) vIceFile = /* Initial V-ice velocity File */
(PID.TID 0000.0001)               'siVICE.ini'
(PID.TID 0000.0001)     ;
(PID.TID 0000.0001) SEAICEwriteState  = /* write sea ice state to file */
(PID.TID 0000.0001)                   F
(PID.TID 0000.0001)     ;
(PID.TID 0000.0001) SEAICE_monFreq  = /* monitor frequency */
(PID.TID 0000.0001)                 3.600000000000000E+03
(PID.TID 0000.0001)     ;
(PID.TID 0000.0001) SEAICE_dumpFreq   = /* dump frequency */
(PID.TID 0000.0001)                 0.000000000000000E+00
(PID.TID 0000.0001)     ;
(PID.TID 0000.0001) SEAICE_taveFreq   = /* time-averaging frequency */
(PID.TID 0000.0001)                 0.000000000000000E+00
(PID.TID 0000.0001)     ;
(PID.TID 0000.0001) SEAICE_mon_stdio  = /* write monitor to std-outp */
(PID.TID 0000.0001)                   T
(PID.TID 0000.0001)     ;
(PID.TID 0000.0001) SEAICE_dump_mdsio = /* write snap-shot   using MDSIO */
(PID.TID 0000.0001)                   T
(PID.TID 0000.0001)     ;
(PID.TID 0000.0001) SEAICE_tave_mdsio = /* write TimeAverage using MDSIO */
(PID.TID 0000.0001)                   T
(PID.TID 0000.0001)     ;
(PID.TID 0000.0001) 
(PID.TID 0000.0001)    Seaice regularization numbers,   > START <
(PID.TID 0000.0001)    -----------------------------------------------
(PID.TID 0000.0001) SEAICE_deltaMin   = /* reduce singularities in Delta */
(PID.TID 0000.0001)                 1.000000000000000E-10
(PID.TID 0000.0001)     ;
(PID.TID 0000.0001) SEAICE_EPS        = /* small number */
(PID.TID 0000.0001)                 1.000000000000000E-10
(PID.TID 0000.0001)     ;
(PID.TID 0000.0001) SEAICE_EPS_SQ     = /* small number squared */
(PID.TID 0000.0001)                 1.000000000000000E-20
(PID.TID 0000.0001)     ;
(PID.TID 0000.0001) SEAICE_area_reg   = /* reduce derivative singularities */
(PID.TID 0000.0001)                 1.000000000000000E-05
(PID.TID 0000.0001)     ;
(PID.TID 0000.0001) SEAICE_hice_reg   = /* reduce derivative singularities */
(PID.TID 0000.0001)                 5.000000000000000E-02
(PID.TID 0000.0001)     ;
(PID.TID 0000.0001) SEAICE_area_floor = /* reduce derivative singularities */
(PID.TID 0000.0001)                 1.000000000000000E-05
(PID.TID 0000.0001)     ;
(PID.TID 0000.0001) 
(PID.TID 0000.0001) // =======================================================
(PID.TID 0000.0001) // Seaice configuration (SEAICE_PARM01) >>> END <<<
(PID.TID 0000.0001) // =======================================================
(PID.TID 0000.0001) 
(PID.TID 0000.0001) ctrl-wet 1:    nvarlength =      1203786
(PID.TID 0000.0001) ctrl-wet 2: surface wet C =          312
(PID.TID 0000.0001) ctrl-wet 3: surface wet W =          312
(PID.TID 0000.0001) ctrl-wet 4: surface wet S =          283
(PID.TID 0000.0001) ctrl-wet 4a:surface wet V =            0
(PID.TID 0000.0001) ctrl-wet 5: 3D wet points =        11544
(PID.TID 0000.0001) ctrl-wet 6: no recs for i =     1           0
(PID.TID 0000.0001) ctrl-wet 6: no recs for i =     2           0
(PID.TID 0000.0001) ctrl-wet 6: no recs for i =     3           0
(PID.TID 0000.0001) ctrl-wet 6: no recs for i =     4           0
(PID.TID 0000.0001) ctrl-wet 6: no recs for i =     5           0
(PID.TID 0000.0001) ctrl-wet 6: no recs for i =     6           0
(PID.TID 0000.0001) ctrl-wet 6: no recs for i =     7           0
(PID.TID 0000.0001) ctrl-wet 6: no recs for i =     8           0
(PID.TID 0000.0001) ctrl-wet 6: no recs for i =     9           0
(PID.TID 0000.0001) ctrl-wet 6: no recs for i =    10           0
(PID.TID 0000.0001) ctrl-wet 6: no recs for i =    11           0
(PID.TID 0000.0001) ctrl-wet 6: no recs for i =    12           0
(PID.TID 0000.0001) ctrl-wet 6: no recs for i =    13           0
(PID.TID 0000.0001) ctrl-wet 6: no recs for i =    14           0
(PID.TID 0000.0001) ctrl-wet 6: no recs for i =    15           0
(PID.TID 0000.0001) ctrl-wet 6: no recs for i =    16           0
(PID.TID 0000.0001) ctrl-wet 6: no recs for i =    17           0
(PID.TID 0000.0001) ctrl-wet 6: no recs for i =    18           0
(PID.TID 0000.0001) ctrl-wet 6: no recs for i =    19           0
(PID.TID 0000.0001) ctrl-wet 6: no recs for i =    20           0
(PID.TID 0000.0001) ctrl-wet 6: no recs for i =    21           0
(PID.TID 0000.0001) ctrl-wet 6: no recs for i =    22           0
(PID.TID 0000.0001) ctrl-wet 6: no recs for i =    23           0
(PID.TID 0000.0001) ctrl-wet 6: no recs for i =    24           0
(PID.TID 0000.0001) ctrl-wet 6: no recs for i =    25           0
(PID.TID 0000.0001) ctrl-wet 6: no recs for i =    26           0
(PID.TID 0000.0001) ctrl-wet 6: no recs for i =    27           0
(PID.TID 0000.0001) ctrl-wet 6: no recs for i =    28           0
(PID.TID 0000.0001) ctrl-wet 6: no recs for i =    29           0
(PID.TID 0000.0001) ctrl-wet 6: no recs for i =    30           0
(PID.TID 0000.0001) ctrl-wet 6: no recs for i =    31           0
(PID.TID 0000.0001) ctrl-wet 6: no recs for i =    32           0
(PID.TID 0000.0001) ctrl-wet 6: no recs for i =    33           0
(PID.TID 0000.0001) ctrl-wet 6: no recs for i =    34           0
(PID.TID 0000.0001) ctrl-wet 6: no recs for i =    35           0
(PID.TID 0000.0001) ctrl-wet 6: no recs for i =    36           0
(PID.TID 0000.0001) ctrl-wet 6: no recs for i =    37           0
(PID.TID 0000.0001) ctrl-wet 6: no recs for i =    38           0
(PID.TID 0000.0001) ctrl-wet 6: no recs for i =    39           0
(PID.TID 0000.0001) ctrl-wet 6: no recs for i =    40           0
(PID.TID 0000.0001) ctrl-wet 6: no recs for i =    41           0
(PID.TID 0000.0001) ctrl-wet 6: no recs for i =    42           0
(PID.TID 0000.0001) ctrl-wet 6: no recs for i =    43           0
(PID.TID 0000.0001) ctrl-wet 6: no recs for i =    44           0
(PID.TID 0000.0001) ctrl-wet 6: no recs for i =    45           0
(PID.TID 0000.0001) ctrl-wet 6: no recs for i =    46           0
(PID.TID 0000.0001) ctrl-wet 6: no recs for i =    47           0
(PID.TID 0000.0001) ctrl-wet 6: no recs for i =    48           0
(PID.TID 0000.0001) ctrl-wet 6: no recs for i =    49           0
(PID.TID 0000.0001) ctrl-wet 6: no recs for i =    50           0
(PID.TID 0000.0001) ctrl-wet 6: no recs for i =    51           0
(PID.TID 0000.0001) ctrl-wet 6: no recs for i =    52           0
(PID.TID 0000.0001) ctrl-wet 6: no recs for i =    53           0
(PID.TID 0000.0001) ctrl-wet 6: no recs for i =    54           0
(PID.TID 0000.0001) ctrl-wet 6: no recs for i =    55           0
(PID.TID 0000.0001) ctrl-wet 6: no recs for i =    56           0
(PID.TID 0000.0001) ctrl-wet 6: no recs for i =    57           0
(PID.TID 0000.0001) ctrl-wet 6: no recs for i =    58           0
(PID.TID 0000.0001) ctrl-wet 6: no recs for i =    59           0
(PID.TID 0000.0001) ctrl-wet 6: no recs for i =    60           0
(PID.TID 0000.0001) ctrl-wet 6: no recs for i =    61           0
(PID.TID 0000.0001) ctrl-wet 6: no recs for i =    62           0
(PID.TID 0000.0001) ctrl-wet 6: no recs for i =    63           0
(PID.TID 0000.0001) ctrl-wet 6: no recs for i =    64           0
(PID.TID 0000.0001) ctrl-wet 6: no recs for i =    65           0
(PID.TID 0000.0001) ctrl-wet 6: no recs for i =    66           0
(PID.TID 0000.0001) ctrl-wet 6: no recs for i =    67           0
(PID.TID 0000.0001) ctrl-wet 6: no recs for i =    68           0
(PID.TID 0000.0001) ctrl-wet 6: no recs for i =    69           0
(PID.TID 0000.0001) ctrl-wet 6: no recs for i =    70           0
(PID.TID 0000.0001) ctrl-wet 6: no recs for i =    71           0
(PID.TID 0000.0001) ctrl-wet 6: no recs for i =    72           0
(PID.TID 0000.0001) ctrl-wet 6: no recs for i =    73           0
(PID.TID 0000.0001) ctrl-wet 6: no recs for i =    74           0
(PID.TID 0000.0001) ctrl-wet 6: no recs for i =    75           0
(PID.TID 0000.0001) ctrl-wet 6: no recs for i =    76           0
(PID.TID 0000.0001) ctrl-wet 6: no recs for i =    77           0
(PID.TID 0000.0001) ctrl-wet 6: no recs for i =    78           0
(PID.TID 0000.0001) ctrl-wet 6: no recs for i =    79           0
(PID.TID 0000.0001) ctrl-wet 6: no recs for i =    80           0
(PID.TID 0000.0001) ctrl-wet 6: no recs for i =    81           0
(PID.TID 0000.0001) ctrl-wet 6: no recs for i =    82           0
(PID.TID 0000.0001) ctrl-wet 6: no recs for i =    83           0
(PID.TID 0000.0001) ctrl-wet 6: no recs for i =    84           0
(PID.TID 0000.0001) ctrl-wet 6: no recs for i =    85           0
(PID.TID 0000.0001) ctrl-wet 6: no recs for i =    86           0
(PID.TID 0000.0001) ctrl-wet 6: no recs for i =    87           0
(PID.TID 0000.0001) ctrl-wet 6: no recs for i =    88           0
(PID.TID 0000.0001) ctrl-wet 6: no recs for i =    89           0
(PID.TID 0000.0001) ctrl-wet 6: no recs for i =    90           0
(PID.TID 0000.0001) ctrl-wet 6: no recs for i =    91           0
(PID.TID 0000.0001) ctrl-wet 6: no recs for i =    92           0
(PID.TID 0000.0001) ctrl-wet 6: no recs for i =    93           0
(PID.TID 0000.0001) ctrl-wet 6: no recs for i =    94           0
(PID.TID 0000.0001) ctrl-wet 6: no recs for i =    95           0
(PID.TID 0000.0001) ctrl-wet 6: no recs for i =    96           0
(PID.TID 0000.0001) ctrl-wet 6: no recs for i =    97           0
(PID.TID 0000.0001) ctrl-wet 6: no recs for i =    98           0
(PID.TID 0000.0001) ctrl-wet 6: no recs for i =    99           0
(PID.TID 0000.0001) ctrl-wet 6: no recs for i =   100           0
(PID.TID 0000.0001) ctrl-wet 6: no recs for i =   101           0
(PID.TID 0000.0001) ctrl-wet 6: no recs for i =   102           0
(PID.TID 0000.0001) ctrl-wet 6: no recs for i =   103           0
(PID.TID 0000.0001) ctrl-wet 6: no recs for i =   104           0
(PID.TID 0000.0001) ctrl-wet 6: no recs for i =   105           0
(PID.TID 0000.0001) ctrl-wet 6: no recs for i =   106           0
(PID.TID 0000.0001) ctrl-wet 6: no recs for i =   107           0
(PID.TID 0000.0001) ctrl-wet 6: no recs for i =   108           0
(PID.TID 0000.0001) ctrl-wet 6: no recs for i =   109           0
(PID.TID 0000.0001) ctrl-wet 6: no recs for i =   110           0
(PID.TID 0000.0001) ctrl-wet 6: no recs for i =   111           0
(PID.TID 0000.0001) ctrl-wet 6: no recs for i =   112           0
(PID.TID 0000.0001) ctrl-wet 6: no recs for i =   113           0
(PID.TID 0000.0001) ctrl-wet 6: no recs for i =   114           0
(PID.TID 0000.0001) ctrl-wet 6: no recs for i =   115           0
(PID.TID 0000.0001) ctrl-wet 6: no recs for i =   116           0
(PID.TID 0000.0001) ctrl-wet 6: no recs for i =   117           0
(PID.TID 0000.0001) ctrl-wet 6: no recs for i =   118           0
(PID.TID 0000.0001) ctrl-wet 6: no recs for i =   119           0
(PID.TID 0000.0001) ctrl-wet 6: no recs for i =   120           0
(PID.TID 0000.0001) ctrl-wet 6: no recs for i =   121           0
(PID.TID 0000.0001) ctrl-wet 6: no recs for i =   122           0
(PID.TID 0000.0001) ctrl-wet 6: no recs for i =   123           0
(PID.TID 0000.0001) ctrl-wet 6: no recs for i =   124           0
(PID.TID 0000.0001) ctrl-wet 6: no recs for i =   125           0
(PID.TID 0000.0001) ctrl-wet 6: no recs for i =   126           0
(PID.TID 0000.0001) ctrl-wet 6: no recs for i =   127           0
(PID.TID 0000.0001) ctrl-wet 6: no recs for i =   128           0
(PID.TID 0000.0001) ctrl-wet 6: no recs for i =   129           0
(PID.TID 0000.0001) ctrl-wet 6: no recs for i =   130           0
(PID.TID 0000.0001) ctrl-wet 6: no recs for i =   131           0
(PID.TID 0000.0001) ctrl-wet 6: no recs for i =   132           0
(PID.TID 0000.0001) ctrl-wet 6: no recs for i =   133           0
(PID.TID 0000.0001) ctrl-wet 6: no recs for i =   134           0
(PID.TID 0000.0001) ctrl-wet 6: no recs for i =   135           0
(PID.TID 0000.0001) ctrl-wet 6: no recs for i =   136           0
(PID.TID 0000.0001) ctrl-wet 6: no recs for i =   137           0
(PID.TID 0000.0001) ctrl-wet 6: no recs for i =   138           0
(PID.TID 0000.0001) ctrl-wet 6: no recs for i =   139           0
(PID.TID 0000.0001) ctrl-wet 6: no recs for i =   140           0
(PID.TID 0000.0001) ctrl-wet 6: no recs for i =   141           0
(PID.TID 0000.0001) ctrl-wet 6: no recs for i =   142           0
(PID.TID 0000.0001) ctrl-wet 6: no recs for i =   143           0
(PID.TID 0000.0001) ctrl-wet 6: no recs for i =   144           0
(PID.TID 0000.0001) ctrl-wet 6: no recs for i =   145           0
(PID.TID 0000.0001) ctrl-wet 6: no recs for i =   146           0
(PID.TID 0000.0001) ctrl-wet 6: no recs for i =   147           0
(PID.TID 0000.0001) ctrl-wet 6: no recs for i =   148           0
(PID.TID 0000.0001) ctrl-wet 6: no recs for i =   149           0
(PID.TID 0000.0001) ctrl-wet 6: no recs for i =   150           0
(PID.TID 0000.0001) ctrl-wet 6: no recs for i =   151           0
(PID.TID 0000.0001) ctrl-wet 6: no recs for i =   152           0
(PID.TID 0000.0001) ctrl-wet 6: no recs for i =   153           0
(PID.TID 0000.0001) ctrl-wet 6: no recs for i =   154           0
(PID.TID 0000.0001) ctrl-wet 6: no recs for i =   155           0
(PID.TID 0000.0001) ctrl-wet 6: no recs for i =   156           0
(PID.TID 0000.0001) ctrl-wet 6: no recs for i =   157           0
(PID.TID 0000.0001) ctrl-wet 6: no recs for i =   158           0
(PID.TID 0000.0001) ctrl-wet 6: no recs for i =   159           0
(PID.TID 0000.0001) ctrl-wet 6: no recs for i =   160           0
(PID.TID 0000.0001) ctrl-wet 6: no recs for i =   161           0
(PID.TID 0000.0001) ctrl-wet 6: no recs for i =   162           0
(PID.TID 0000.0001) ctrl-wet 6: no recs for i =   163           0
(PID.TID 0000.0001) ctrl-wet 6: no recs for i =   164           0
(PID.TID 0000.0001) ctrl-wet 6: no recs for i =   165           0
(PID.TID 0000.0001) ctrl-wet 6: no recs for i =   166           0
(PID.TID 0000.0001) ctrl-wet 6: no recs for i =   167           0
(PID.TID 0000.0001) ctrl-wet 6: no recs for i =   168           0
(PID.TID 0000.0001) ctrl-wet 6: no recs for i =   169           0
(PID.TID 0000.0001) ctrl-wet 6: no recs for i =   170           0
(PID.TID 0000.0001) ctrl-wet 6: no recs for i =   171           0
(PID.TID 0000.0001) ctrl-wet 6: no recs for i =   172           0
(PID.TID 0000.0001) ctrl-wet 6: no recs for i =   173           0
(PID.TID 0000.0001) ctrl-wet 6: no recs for i =   174           0
(PID.TID 0000.0001) ctrl-wet 6: no recs for i =   175           0
(PID.TID 0000.0001) ctrl-wet 6: no recs for i =   176           0
(PID.TID 0000.0001) ctrl-wet 6: no recs for i =   177           0
(PID.TID 0000.0001) ctrl-wet 6: no recs for i =   178           0
(PID.TID 0000.0001) ctrl-wet 6: no recs for i =   179           0
(PID.TID 0000.0001) ctrl-wet 6: no recs for i =   180           0
(PID.TID 0000.0001) ctrl-wet 6: no recs for i =   181           0
(PID.TID 0000.0001) ctrl-wet 6: no recs for i =   182           0
(PID.TID 0000.0001) ctrl-wet 6: no recs for i =   183           0
(PID.TID 0000.0001) ctrl-wet 6: no recs for i =   184           0
(PID.TID 0000.0001) ctrl-wet 6: no recs for i =   185           0
(PID.TID 0000.0001) ctrl-wet 6: no recs for i =   186           0
(PID.TID 0000.0001) ctrl-wet 6: no recs for i =   187           0
(PID.TID 0000.0001) ctrl-wet 6: no recs for i =   188           0
(PID.TID 0000.0001) ctrl-wet 6: no recs for i =   189           0
(PID.TID 0000.0001) ctrl-wet 6: no recs for i =   190           0
(PID.TID 0000.0001) ctrl-wet 6: no recs for i =   191           0
(PID.TID 0000.0001) ctrl-wet 6: no recs for i =   192           0
(PID.TID 0000.0001) ctrl-wet 6: no recs for i =   193           0
(PID.TID 0000.0001) ctrl-wet 6: no recs for i =   194           0
(PID.TID 0000.0001) ctrl-wet 6: no recs for i =   195           0
(PID.TID 0000.0001) ctrl-wet 6: no recs for i =   196           0
(PID.TID 0000.0001) ctrl-wet 6: no recs for i =   197           0
(PID.TID 0000.0001) ctrl-wet 6: no recs for i =   198           0
(PID.TID 0000.0001) ctrl-wet 6: no recs for i =   199           0
(PID.TID 0000.0001) ctrl-wet 6: no recs for i =   200           0
(PID.TID 0000.0001) ctrl-wet 6: no recs for i =   201           1
(PID.TID 0000.0001) ctrl-wet 6: no recs for i =   202           1
(PID.TID 0000.0001) ctrl-wet 6: no recs for i =   203           1
(PID.TID 0000.0001) ctrl-wet 6: no recs for i =   204           0
(PID.TID 0000.0001) ctrl-wet 6: no recs for i =   205           0
(PID.TID 0000.0001) ctrl-wet 6: no recs for i =   206           0
(PID.TID 0000.0001) ctrl-wet 6: no recs for i =   207           0
(PID.TID 0000.0001) ctrl-wet 6: no recs for i =   208           0
(PID.TID 0000.0001) ctrl-wet 6: no recs for i =   209           0
(PID.TID 0000.0001) ctrl-wet 6: no recs for i =   210           0
(PID.TID 0000.0001) ctrl-wet 6: no recs for i =   211           0
(PID.TID 0000.0001) ctrl-wet 6: no recs for i =   212           0
(PID.TID 0000.0001) ctrl-wet 6: no recs for i =   213           0
(PID.TID 0000.0001) ctrl-wet 6: no recs for i =   214           0
(PID.TID 0000.0001) ctrl-wet 6: no recs for i =   215           0
(PID.TID 0000.0001) ctrl-wet 6: no recs for i =   216           0
(PID.TID 0000.0001) ctrl-wet 6: no recs for i =   217           0
(PID.TID 0000.0001) ctrl-wet 6: no recs for i =   218           0
(PID.TID 0000.0001) ctrl-wet 6: no recs for i =   219           0
(PID.TID 0000.0001) ctrl-wet 6: no recs for i =   220           0
(PID.TID 0000.0001) ctrl-wet 6: no recs for i =   221           0
(PID.TID 0000.0001) ctrl-wet 6: no recs for i =   222           0
(PID.TID 0000.0001) ctrl-wet 6: no recs for i =   223           0
(PID.TID 0000.0001) ctrl-wet 6: no recs for i =   224           0
(PID.TID 0000.0001) ctrl-wet 6: no recs for i =   225           0
(PID.TID 0000.0001) ctrl-wet 6: no recs for i =   226           0
(PID.TID 0000.0001) ctrl-wet 6: no recs for i =   227           0
(PID.TID 0000.0001) ctrl-wet 6: no recs for i =   228           0
(PID.TID 0000.0001) ctrl-wet 6: no recs for i =   229           0
(PID.TID 0000.0001) ctrl-wet 6: no recs for i =   230           0
(PID.TID 0000.0001) ctrl-wet 6: no recs for i =   231           0
(PID.TID 0000.0001) ctrl-wet 6: no recs for i =   232           0
(PID.TID 0000.0001) ctrl-wet 6: no recs for i =   233           0
(PID.TID 0000.0001) ctrl-wet 6: no recs for i =   234           0
(PID.TID 0000.0001) ctrl-wet 6: no recs for i =   235           0
(PID.TID 0000.0001) ctrl-wet 6: no recs for i =   236           0
(PID.TID 0000.0001) ctrl-wet 6: no recs for i =   237           0
(PID.TID 0000.0001) ctrl-wet 6: no recs for i =   238           0
(PID.TID 0000.0001) ctrl-wet 6: no recs for i =   239           0
(PID.TID 0000.0001) ctrl-wet 6: no recs for i =   240           0
(PID.TID 0000.0001) ctrl-wet 6: no recs for i =   241           0
(PID.TID 0000.0001) ctrl-wet 6: no recs for i =   242           0
(PID.TID 0000.0001) ctrl-wet 6: no recs for i =   243           0
(PID.TID 0000.0001) ctrl-wet 6: no recs for i =   244           0
(PID.TID 0000.0001) ctrl-wet 6: no recs for i =   245           0
(PID.TID 0000.0001) ctrl-wet 6: no recs for i =   246           0
(PID.TID 0000.0001) ctrl-wet 6: no recs for i =   247           0
(PID.TID 0000.0001) ctrl-wet 6: no recs for i =   248           0
(PID.TID 0000.0001) ctrl-wet 6: no recs for i =   249           0
(PID.TID 0000.0001) ctrl-wet 6: no recs for i =   250           0
(PID.TID 0000.0001) ctrl-wet 6: no recs for i =   251           0
(PID.TID 0000.0001) ctrl-wet 6: no recs for i =   252           0
(PID.TID 0000.0001) ctrl-wet 6: no recs for i =   253           0
(PID.TID 0000.0001) ctrl-wet 6: no recs for i =   254           0
(PID.TID 0000.0001) ctrl-wet 6: no recs for i =   255           0
(PID.TID 0000.0001) ctrl-wet 6: no recs for i =   256           0
(PID.TID 0000.0001) ctrl-wet 6: no recs for i =   257           0
(PID.TID 0000.0001) ctrl-wet 6: no recs for i =   258           0
(PID.TID 0000.0001) ctrl-wet 6: no recs for i =   259           0
(PID.TID 0000.0001) ctrl-wet 6: no recs for i =   260           0
(PID.TID 0000.0001) ctrl-wet 6: no recs for i =   261           0
(PID.TID 0000.0001) ctrl-wet 6: no recs for i =   262           0
(PID.TID 0000.0001) ctrl-wet 6: no recs for i =   263           0
(PID.TID 0000.0001) ctrl-wet 6: no recs for i =   264           0
(PID.TID 0000.0001) ctrl-wet 6: no recs for i =   265           0
(PID.TID 0000.0001) ctrl-wet 6: no recs for i =   266           0
(PID.TID 0000.0001) ctrl-wet 6: no recs for i =   267           0
(PID.TID 0000.0001) ctrl-wet 6: no recs for i =   268           0
(PID.TID 0000.0001) ctrl-wet 6: no recs for i =   269           0
(PID.TID 0000.0001) ctrl-wet 6: no recs for i =   270           0
(PID.TID 0000.0001) ctrl-wet 6: no recs for i =   271           0
(PID.TID 0000.0001) ctrl-wet 6: no recs for i =   272           0
(PID.TID 0000.0001) ctrl-wet 6: no recs for i =   273           0
(PID.TID 0000.0001) ctrl-wet 6: no recs for i =   274           0
(PID.TID 0000.0001) ctrl-wet 6: no recs for i =   275           0
(PID.TID 0000.0001) ctrl-wet 6: no recs for i =   276           0
(PID.TID 0000.0001) ctrl-wet 6: no recs for i =   277           0
(PID.TID 0000.0001) ctrl-wet 6: no recs for i =   278           0
(PID.TID 0000.0001) ctrl-wet 6: no recs for i =   279           0
(PID.TID 0000.0001) ctrl-wet 6: no recs for i =   280           0
(PID.TID 0000.0001) ctrl-wet 6: no recs for i =   281           0
(PID.TID 0000.0001) ctrl-wet 6: no recs for i =   282           0
(PID.TID 0000.0001) ctrl-wet 6: no recs for i =   283           0
(PID.TID 0000.0001) ctrl-wet 6: no recs for i =   284           0
(PID.TID 0000.0001) ctrl-wet 6: no recs for i =   285           0
(PID.TID 0000.0001) ctrl-wet 6: no recs for i =   286           0
(PID.TID 0000.0001) ctrl-wet 6: no recs for i =   287           0
(PID.TID 0000.0001) ctrl-wet 6: no recs for i =   288           0
(PID.TID 0000.0001) ctrl-wet 6: no recs for i =   289           0
(PID.TID 0000.0001) ctrl-wet 6: no recs for i =   290           0
(PID.TID 0000.0001) ctrl-wet 6: no recs for i =   291           0
(PID.TID 0000.0001) ctrl-wet 6: no recs for i =   292           0
(PID.TID 0000.0001) ctrl-wet 6: no recs for i =   293           0
(PID.TID 0000.0001) ctrl-wet 6: no recs for i =   294           0
(PID.TID 0000.0001) ctrl-wet 6: no recs for i =   295           0
(PID.TID 0000.0001) ctrl-wet 6: no recs for i =   296           0
(PID.TID 0000.0001) ctrl-wet 6: no recs for i =   297           0
(PID.TID 0000.0001) ctrl-wet 6: no recs for i =   298           0
(PID.TID 0000.0001) ctrl-wet 6: no recs for i =   299           0
(PID.TID 0000.0001) ctrl-wet 6: no recs for i =   300           0
(PID.TID 0000.0001) ctrl-wet 6: no recs for i =   301           0
(PID.TID 0000.0001) ctrl-wet 6: no recs for i =   302           0
(PID.TID 0000.0001) ctrl-wet 6: no recs for i =   303           0
(PID.TID 0000.0001) ctrl-wet 6: no recs for i =   304           0
(PID.TID 0000.0001) ctrl-wet 6: no recs for i =   305           0
(PID.TID 0000.0001) ctrl-wet 6: no recs for i =   306           0
(PID.TID 0000.0001) ctrl-wet 6: no recs for i =   307           0
(PID.TID 0000.0001) ctrl-wet 6: no recs for i =   308           0
(PID.TID 0000.0001) ctrl-wet 6: no recs for i =   309           0
(PID.TID 0000.0001) ctrl-wet 6: no recs for i =   310           0
(PID.TID 0000.0001) ctrl-wet 6: no recs for i =   311           0
(PID.TID 0000.0001) ctrl-wet 6: no recs for i =   312           0
(PID.TID 0000.0001) ctrl-wet 6: no recs for i =   313           0
(PID.TID 0000.0001) ctrl-wet 6: no recs for i =   314           0
(PID.TID 0000.0001) ctrl-wet 6: no recs for i =   315           0
(PID.TID 0000.0001) ctrl-wet 6: no recs for i =   316           0
(PID.TID 0000.0001) ctrl-wet 6: no recs for i =   317           0
(PID.TID 0000.0001) ctrl-wet 6: no recs for i =   318           0
(PID.TID 0000.0001) ctrl-wet 6: no recs for i =   319           0
(PID.TID 0000.0001) ctrl-wet 6: no recs for i =   320           0
(PID.TID 0000.0001) ctrl-wet 6: no recs for i =   321           0
(PID.TID 0000.0001) ctrl-wet 6: no recs for i =   322           0
(PID.TID 0000.0001) ctrl-wet 6: no recs for i =   323           0
(PID.TID 0000.0001) ctrl-wet 6: no recs for i =   324           0
(PID.TID 0000.0001) ctrl-wet 6: no recs for i =   325           0
(PID.TID 0000.0001) ctrl-wet 6: no recs for i =   326           0
(PID.TID 0000.0001) ctrl-wet 6: no recs for i =   327           0
(PID.TID 0000.0001) ctrl-wet 6: no recs for i =   328           0
(PID.TID 0000.0001) ctrl-wet 6: no recs for i =   329           0
(PID.TID 0000.0001) ctrl-wet 6: no recs for i =   330           0
(PID.TID 0000.0001) ctrl-wet 6: no recs for i =   331           0
(PID.TID 0000.0001) ctrl-wet 6: no recs for i =   332           0
(PID.TID 0000.0001) ctrl-wet 6: no recs for i =   333           0
(PID.TID 0000.0001) ctrl-wet 6: no recs for i =   334           0
(PID.TID 0000.0001) ctrl-wet 6: no recs for i =   335           0
(PID.TID 0000.0001) ctrl-wet 6: no recs for i =   336           0
(PID.TID 0000.0001) ctrl-wet 6: no recs for i =   337           0
(PID.TID 0000.0001) ctrl-wet 6: no recs for i =   338           0
(PID.TID 0000.0001) ctrl-wet 6: no recs for i =   339           0
(PID.TID 0000.0001) ctrl-wet 6: no recs for i =   340           0
(PID.TID 0000.0001) ctrl-wet 6: no recs for i =   341           0
(PID.TID 0000.0001) ctrl-wet 6: no recs for i =   342           0
(PID.TID 0000.0001) ctrl-wet 6: no recs for i =   343           0
(PID.TID 0000.0001) ctrl-wet 6: no recs for i =   344           0
(PID.TID 0000.0001) ctrl-wet 6: no recs for i =   345           0
(PID.TID 0000.0001) ctrl-wet 6: no recs for i =   346           0
(PID.TID 0000.0001) ctrl-wet 6: no recs for i =   347           0
(PID.TID 0000.0001) ctrl-wet 6: no recs for i =   348           0
(PID.TID 0000.0001) ctrl-wet 6: no recs for i =   349           0
(PID.TID 0000.0001) ctrl-wet 6: no recs for i =   350           0
(PID.TID 0000.0001) ctrl-wet 6: no recs for i =   351           0
(PID.TID 0000.0001) ctrl-wet 6: no recs for i =   352           0
(PID.TID 0000.0001) ctrl-wet 6: no recs for i =   353           0
(PID.TID 0000.0001) ctrl-wet 6: no recs for i =   354           0
(PID.TID 0000.0001) ctrl-wet 6: no recs for i =   355           0
(PID.TID 0000.0001) ctrl-wet 6: no recs for i =   356           0
(PID.TID 0000.0001) ctrl-wet 6: no recs for i =   357           0
(PID.TID 0000.0001) ctrl-wet 6: no recs for i =   358           0
(PID.TID 0000.0001) ctrl-wet 6: no recs for i =   359           0
(PID.TID 0000.0001) ctrl-wet 6: no recs for i =   360           0
(PID.TID 0000.0001) ctrl-wet 6: no recs for i =   361           0
(PID.TID 0000.0001) ctrl-wet 6: no recs for i =   362           0
(PID.TID 0000.0001) ctrl-wet 6: no recs for i =   363           0
(PID.TID 0000.0001) ctrl-wet 6: no recs for i =   364           0
(PID.TID 0000.0001) ctrl-wet 6: no recs for i =   365           0
(PID.TID 0000.0001) ctrl-wet 6: no recs for i =   366           0
(PID.TID 0000.0001) ctrl-wet 6: no recs for i =   367           0
(PID.TID 0000.0001) ctrl-wet 6: no recs for i =   368           0
(PID.TID 0000.0001) ctrl-wet 6: no recs for i =   369           0
(PID.TID 0000.0001) ctrl-wet 6: no recs for i =   370           0
(PID.TID 0000.0001) ctrl-wet 6: no recs for i =   371           0
(PID.TID 0000.0001) ctrl-wet 6: no recs for i =   372           0
(PID.TID 0000.0001) ctrl-wet 6: no recs for i =   373           0
(PID.TID 0000.0001) ctrl-wet 6: no recs for i =   374           0
(PID.TID 0000.0001) ctrl-wet 6: no recs for i =   375           0
(PID.TID 0000.0001) ctrl-wet 6: no recs for i =   376           0
(PID.TID 0000.0001) ctrl-wet 6: no recs for i =   377           0
(PID.TID 0000.0001) ctrl-wet 6: no recs for i =   378           0
(PID.TID 0000.0001) ctrl-wet 6: no recs for i =   379           0
(PID.TID 0000.0001) ctrl-wet 6: no recs for i =   380           0
(PID.TID 0000.0001) ctrl-wet 6: no recs for i =   381           0
(PID.TID 0000.0001) ctrl-wet 6: no recs for i =   382           0
(PID.TID 0000.0001) ctrl-wet 6: no recs for i =   383           0
(PID.TID 0000.0001) ctrl-wet 6: no recs for i =   384           0
(PID.TID 0000.0001) ctrl-wet 6: no recs for i =   385           0
(PID.TID 0000.0001) ctrl-wet 6: no recs for i =   386           0
(PID.TID 0000.0001) ctrl-wet 6: no recs for i =   387           0
(PID.TID 0000.0001) ctrl-wet 6: no recs for i =   388           0
(PID.TID 0000.0001) ctrl-wet 6: no recs for i =   389           0
(PID.TID 0000.0001) ctrl-wet 6: no recs for i =   390           0
(PID.TID 0000.0001) ctrl-wet 6: no recs for i =   391           0
(PID.TID 0000.0001) ctrl-wet 6: no recs for i =   392           0
(PID.TID 0000.0001) ctrl-wet 6: no recs for i =   393           0
(PID.TID 0000.0001) ctrl-wet 6: no recs for i =   394           0
(PID.TID 0000.0001) ctrl-wet 6: no recs for i =   395           0
(PID.TID 0000.0001) ctrl-wet 6: no recs for i =   396           0
(PID.TID 0000.0001) ctrl-wet 6: no recs for i =   397           0
(PID.TID 0000.0001) ctrl-wet 6: no recs for i =   398           0
(PID.TID 0000.0001) ctrl-wet 6: no recs for i =   399           0
(PID.TID 0000.0001) ctrl-wet 6: no recs for i =   400           0
(PID.TID 0000.0001) ctrl-wet 7: flux         23088
(PID.TID 0000.0001) ctrl-wet 8: atmos        23088
(PID.TID 0000.0001) ctrl-wet -------------------------------------------------
(PID.TID 0000.0001) ctrl-wet 13: global nvarlength for Nr =   50     7220976
(PID.TID 0000.0001) ctrl-wet -------------------------------------------------
(PID.TID 0000.0001) ctrl-wet 14: global nWet C/S/W/V k=    1       60646       59295       59493           0
(PID.TID 0000.0001) ctrl-wet 14: global nWet C/S/W/V k=    2       60646       59295       59493           0
(PID.TID 0000.0001) ctrl-wet 14: global nWet C/S/W/V k=    3       59874       58517       58725           0
(PID.TID 0000.0001) ctrl-wet 14: global nWet C/S/W/V k=    4       59387       58040       58258           0
(PID.TID 0000.0001) ctrl-wet 14: global nWet C/S/W/V k=    5       58882       57536       57754           0
(PID.TID 0000.0001) ctrl-wet 14: global nWet C/S/W/V k=    6       58399       57057       57276           0
(PID.TID 0000.0001) ctrl-wet 14: global nWet C/S/W/V k=    7       58052       56735       56936           0
(PID.TID 0000.0001) ctrl-wet 14: global nWet C/S/W/V k=    8       57781       56461       56669           0
(PID.TID 0000.0001) ctrl-wet 14: global nWet C/S/W/V k=    9       57530       56212       56416           0
(PID.TID 0000.0001) ctrl-wet 14: global nWet C/S/W/V k=   10       57283       55964       56154           0
(PID.TID 0000.0001) ctrl-wet 14: global nWet C/S/W/V k=   11       57022       55702       55883           0
(PID.TID 0000.0001) ctrl-wet 14: global nWet C/S/W/V k=   12       56818       55497       55681           0
(PID.TID 0000.0001) ctrl-wet 14: global nWet C/S/W/V k=   13       56634       55322       55509           0
(PID.TID 0000.0001) ctrl-wet 14: global nWet C/S/W/V k=   14       56430       55125       55312           0
(PID.TID 0000.0001) ctrl-wet 14: global nWet C/S/W/V k=   15       56238       54935       55117           0
(PID.TID 0000.0001) ctrl-wet 14: global nWet C/S/W/V k=   16       55975       54689       54858           0
(PID.TID 0000.0001) ctrl-wet 14: global nWet C/S/W/V k=   17       55703       54421       54600           0
(PID.TID 0000.0001) ctrl-wet 14: global nWet C/S/W/V k=   18       55358       54075       54251           0
(PID.TID 0000.0001) ctrl-wet 14: global nWet C/S/W/V k=   19       54964       53666       53853           0
(PID.TID 0000.0001) ctrl-wet 14: global nWet C/S/W/V k=   20       54471       53205       53372           0
(PID.TID 0000.0001) ctrl-wet 14: global nWet C/S/W/V k=   21       53952       52716       52877           0
(PID.TID 0000.0001) ctrl-wet 14: global nWet C/S/W/V k=   22       53489       52249       52409           0
(PID.TID 0000.0001) ctrl-wet 14: global nWet C/S/W/V k=   23       52892       51633       51797           0
(PID.TID 0000.0001) ctrl-wet 14: global nWet C/S/W/V k=   24       52223       50961       51129           0
(PID.TID 0000.0001) ctrl-wet 14: global nWet C/S/W/V k=   25       51696       50480       50635           0
(PID.TID 0000.0001) ctrl-wet 14: global nWet C/S/W/V k=   26       51259       50075       50241           0
(PID.TID 0000.0001) ctrl-wet 14: global nWet C/S/W/V k=   27       50929       49774       49935           0
(PID.TID 0000.0001) ctrl-wet 14: global nWet C/S/W/V k=   28       50664       49532       49678           0
(PID.TID 0000.0001) ctrl-wet 14: global nWet C/S/W/V k=   29       50438       49306       49450           0
(PID.TID 0000.0001) ctrl-wet 14: global nWet C/S/W/V k=   30       50187       49035       49179           0
(PID.TID 0000.0001) ctrl-wet 14: global nWet C/S/W/V k=   31       49964       48805       48937           0
(PID.TID 0000.0001) ctrl-wet 14: global nWet C/S/W/V k=   32       49700       48530       48662           0
(PID.TID 0000.0001) ctrl-wet 14: global nWet C/S/W/V k=   33       49431       48260       48383           0
(PID.TID 0000.0001) ctrl-wet 14: global nWet C/S/W/V k=   34       49176       47993       48108           0
(PID.TID 0000.0001) ctrl-wet 14: global nWet C/S/W/V k=   35       48854       47652       47764           0
(PID.TID 0000.0001) ctrl-wet 14: global nWet C/S/W/V k=   36       48501       47264       47375           0
(PID.TID 0000.0001) ctrl-wet 14: global nWet C/S/W/V k=   37       48098       46846       46951           0
(PID.TID 0000.0001) ctrl-wet 14: global nWet C/S/W/V k=   38       47523       46253       46362           0
(PID.TID 0000.0001) ctrl-wet 14: global nWet C/S/W/V k=   39       46849       45558       45657           0
(PID.TID 0000.0001) ctrl-wet 14: global nWet C/S/W/V k=   40       45984       44670       44751           0
(PID.TID 0000.0001) ctrl-wet 14: global nWet C/S/W/V k=   41       44793       43419       43459           0
(PID.TID 0000.0001) ctrl-wet 14: global nWet C/S/W/V k=   42       42984       41497       41533           0
(PID.TID 0000.0001) ctrl-wet 14: global nWet C/S/W/V k=   43       40302       38691       38718           0
(PID.TID 0000.0001) ctrl-wet 14: global nWet C/S/W/V k=   44       36689       35007       35032           0
(PID.TID 0000.0001) ctrl-wet 14: global nWet C/S/W/V k=   45       31681       30069       29999           0
(PID.TID 0000.0001) ctrl-wet 14: global nWet C/S/W/V k=   46       25595       24028       24031           0
(PID.TID 0000.0001) ctrl-wet 14: global nWet C/S/W/V k=   47       18224       16890       16872           0
(PID.TID 0000.0001) ctrl-wet 14: global nWet C/S/W/V k=   48       11407       10397       10351           0
(PID.TID 0000.0001) ctrl-wet 14: global nWet C/S/W/V k=   49        4597        3913        3912           0
(PID.TID 0000.0001) ctrl-wet 14: global nWet C/S/W/V k=   50         818         624         622           0
(PID.TID 0000.0001) ctrl-wet -------------------------------------------------
(PID.TID 0000.0001) ctrl-wet -------------------------------------------------
(PID.TID 0000.0001) ctrl-wet -------------------------------------------------
(PID.TID 0000.0001) ctrl_init_wet: no. of control variables:            3
(PID.TID 0000.0001) ctrl_init_wet: control vector length:         7220976
(PID.TID 0000.0001) 
(PID.TID 0000.0001) // =======================================================
(PID.TID 0000.0001) // control vector configuration  >>> START <<<
(PID.TID 0000.0001) // =======================================================
(PID.TID 0000.0001) 
(PID.TID 0000.0001)  Total number of ocean points per tile:
(PID.TID 0000.0001)  --------------------------------------
(PID.TID 0000.0001)  snx*sny*nr =    45000
(PID.TID 0000.0001) 
(PID.TID 0000.0001)  Number of ocean points per tile:
(PID.TID 0000.0001)  --------------------------------
(PID.TID 0000.0001)  bi,bj,#(c/s/w): 0001 0001 011544 010207 011460
(PID.TID 0000.0001)  bi,bj,#(c/s/w): 0002 0001 041559 041310 041343
(PID.TID 0000.0001)  bi,bj,#(c/s/w): 0003 0001 039915 038420 039722
(PID.TID 0000.0001)  bi,bj,#(c/s/w): 0004 0001 035457 033982 035227
(PID.TID 0000.0001)  bi,bj,#(c/s/w): 0005 0001 040378 040035 040082
(PID.TID 0000.0001)  bi,bj,#(c/s/w): 0006 0001 040418 040096 040138
(PID.TID 0000.0001)  bi,bj,#(c/s/w): 0007 0001 040462 040067 040100
(PID.TID 0000.0001)  bi,bj,#(c/s/w): 0008 0001 040877 040589 040319
(PID.TID 0000.0001)  bi,bj,#(c/s/w): 0009 0001 031231 030937 030957
(PID.TID 0000.0001)  bi,bj,#(c/s/w): 0010 0001 020622 020046 018422
(PID.TID 0000.0001)  bi,bj,#(c/s/w): 0011 0001 039018 038680 038425
(PID.TID 0000.0001)  bi,bj,#(c/s/w): 0012 0001 019781 019699 019576
(PID.TID 0000.0001) 
(PID.TID 0000.0001)  Settings of generic controls:
(PID.TID 0000.0001)  -----------------------------
(PID.TID 0000.0001) 
(PID.TID 0000.0001)  -> 3d control, genarr3d no.  1 is in use
(PID.TID 0000.0001)       file       = xx_kapgm
(PID.TID 0000.0001)       weight     = wt_ones.bin
(PID.TID 0000.0001)       index      =  0201
(PID.TID 0000.0001)       ncvarindex =  0301
(PID.TID 0000.0001)  -> 3d control, genarr3d no.  2 is in use
(PID.TID 0000.0001)       file       = xx_kapredi
(PID.TID 0000.0001)       weight     = wt_ones.bin
(PID.TID 0000.0001)       index      =  0202
(PID.TID 0000.0001)       ncvarindex =  0302
(PID.TID 0000.0001)  -> 3d control, genarr3d no.  3 is in use
(PID.TID 0000.0001)       file       = xx_diffkr
(PID.TID 0000.0001)       weight     = wt_ones.bin
(PID.TID 0000.0001)       index      =  0203
(PID.TID 0000.0001)       ncvarindex =  0303
(PID.TID 0000.0001) 
(PID.TID 0000.0001) // =======================================================
(PID.TID 0000.0001) // control vector configuration  >>> END <<<
(PID.TID 0000.0001) // =======================================================
(PID.TID 0000.0001) 
(PID.TID 0000.0001) ------------------------------------------------------------
(PID.TID 0000.0001) DIAGNOSTICS_SET_LEVELS: done
(PID.TID 0000.0001)  Total Nb of available Diagnostics: ndiagt=   359
(PID.TID 0000.0001)  write list of available Diagnostics to file: available_diagnostics.log
(PID.TID 0000.0001) SETDIAG: Allocate  1 x  1 Levels for Diagnostic #    23 ETAN
(PID.TID 0000.0001) SETDIAG: Allocate  1 x  1 Levels for Diagnostic #   273 SIarea
(PID.TID 0000.0001) SETDIAG: Allocate  1 x  1 Levels for Diagnostic #   276 SIheff
(PID.TID 0000.0001) SETDIAG: Allocate  1 x  1 Levels for Diagnostic #   278 SIhsnow
(PID.TID 0000.0001) SETDIAG: Allocate  1 x  1 Levels for Diagnostic #    25 DETADT2
(PID.TID 0000.0001) SETDIAG: Allocate  1 x  1 Levels for Diagnostic #    73 PHIBOT
(PID.TID 0000.0001) SETDIAG: Allocate  1 x  1 Levels for Diagnostic #    83 sIceLoad
(PID.TID 0000.0001) SETDIAG: Allocate  1 x  1 Levels for Diagnostic #    77 MXLDEPTH
(PID.TID 0000.0001) SETDIAG: Allocate  1 x  1 Levels for Diagnostic #   359 oceSPDep
(PID.TID 0000.0001) SETDIAG: Allocate  1 x  1 Levels for Diagnostic #   298 SIatmQnt
(PID.TID 0000.0001) SETDIAG: Allocate  1 x  1 Levels for Diagnostic #   305 SIatmFW
(PID.TID 0000.0001) SETDIAG: Allocate  1 x  1 Levels for Diagnostic #    86 oceQnet
(PID.TID 0000.0001) SETDIAG: Allocate  1 x  1 Levels for Diagnostic #    84 oceFWflx
(PID.TID 0000.0001) SETDIAG: Allocate  1 x  1 Levels for Diagnostic #    80 oceTAUX
(PID.TID 0000.0001) SETDIAG: Allocate  1 x  1 Levels for Diagnostic #    81 oceTAUY
(PID.TID 0000.0001) SETDIAG: Allocate  1 x  1 Levels for Diagnostic #   325 ADVxHEFF
(PID.TID 0000.0001) SETDIAG: Allocate  1 x  1 Levels for Diagnostic #   326 ADVyHEFF
(PID.TID 0000.0001) SETDIAG: Allocate  1 x  1 Levels for Diagnostic #   327 DFxEHEFF
(PID.TID 0000.0001) SETDIAG: Allocate  1 x  1 Levels for Diagnostic #   328 DFyEHEFF
(PID.TID 0000.0001) SETDIAG: Allocate  1 x  1 Levels for Diagnostic #   333 ADVxSNOW
(PID.TID 0000.0001) SETDIAG: Allocate  1 x  1 Levels for Diagnostic #   334 ADVySNOW
(PID.TID 0000.0001) SETDIAG: Allocate  1 x  1 Levels for Diagnostic #   335 DFxESNOW
(PID.TID 0000.0001) SETDIAG: Allocate  1 x  1 Levels for Diagnostic #   336 DFyESNOW
(PID.TID 0000.0001) SETDIAG: Allocate  1 x  1 Levels for Diagnostic #   290 SIuice
(PID.TID 0000.0001) SETDIAG: Allocate  1 x  1 Levels for Diagnostic #   291 SIvice
(PID.TID 0000.0001) SETDIAG: Allocate 50 x  1 Levels for Diagnostic #    26 THETA
(PID.TID 0000.0001) SETDIAG: Allocate 50 x  1 Levels for Diagnostic #    27 SALT
(PID.TID 0000.0001) SETDIAG: Allocate 50 x  1 Levels for Diagnostic #    78 DRHODR
(PID.TID 0000.0001) SETDIAG: Allocate 50 x  1 Levels for Diagnostic #    45 UVELMASS
(PID.TID 0000.0001) SETDIAG: Allocate 50 x  1 Levels for Diagnostic #    46 VVELMASS
(PID.TID 0000.0001) SETDIAG: Allocate 50 x  1 Levels for Diagnostic #    47 WVELMASS
(PID.TID 0000.0001) SETDIAG: Allocate 50 x  1 Levels for Diagnostic #   258 GM_PsiX
(PID.TID 0000.0001) SETDIAG: Allocate 50 x  1 Levels for Diagnostic #   259 GM_PsiY
(PID.TID 0000.0001) SETDIAG: Allocate 50 x  1 Levels for Diagnostic #   134 DFxE_TH
(PID.TID 0000.0001) SETDIAG: Allocate 50 x  1 Levels for Diagnostic #   135 DFyE_TH
(PID.TID 0000.0001) SETDIAG: Allocate 50 x  1 Levels for Diagnostic #   131 ADVx_TH
(PID.TID 0000.0001) SETDIAG: Allocate 50 x  1 Levels for Diagnostic #   132 ADVy_TH
(PID.TID 0000.0001) SETDIAG: Allocate 50 x  1 Levels for Diagnostic #   141 DFxE_SLT
(PID.TID 0000.0001) SETDIAG: Allocate 50 x  1 Levels for Diagnostic #   142 DFyE_SLT
(PID.TID 0000.0001) SETDIAG: Allocate 50 x  1 Levels for Diagnostic #   138 ADVx_SLT
(PID.TID 0000.0001) SETDIAG: Allocate 50 x  1 Levels for Diagnostic #   139 ADVy_SLT
(PID.TID 0000.0001)   space allocated for all diagnostics:     825 levels
(PID.TID 0000.0001)   set mate pointer for diag #    80  oceTAUX  , Parms: UU      U1 , mate:    81
(PID.TID 0000.0001)   set mate pointer for diag #    81  oceTAUY  , Parms: VV      U1 , mate:    80
(PID.TID 0000.0001)   set mate pointer for diag #   325  ADVxHEFF , Parms: UU      M1 , mate:   326
(PID.TID 0000.0001)   set mate pointer for diag #   326  ADVyHEFF , Parms: VV      M1 , mate:   325
(PID.TID 0000.0001)   set mate pointer for diag #   327  DFxEHEFF , Parms: UU      M1 , mate:   328
(PID.TID 0000.0001)   set mate pointer for diag #   328  DFyEHEFF , Parms: VV      M1 , mate:   327
(PID.TID 0000.0001)   set mate pointer for diag #   333  ADVxSNOW , Parms: UU      M1 , mate:   334
(PID.TID 0000.0001)   set mate pointer for diag #   334  ADVySNOW , Parms: VV      M1 , mate:   333
(PID.TID 0000.0001)   set mate pointer for diag #   335  DFxESNOW , Parms: UU      M1 , mate:   336
(PID.TID 0000.0001)   set mate pointer for diag #   336  DFyESNOW , Parms: VV      M1 , mate:   335
(PID.TID 0000.0001)   set mate pointer for diag #   290  SIuice   , Parms: UU      M1 , mate:   291
(PID.TID 0000.0001)   set mate pointer for diag #   291  SIvice   , Parms: VV      M1 , mate:   290
(PID.TID 0000.0001)   set mate pointer for diag #    45  UVELMASS , Parms: UUr     MR , mate:    46
(PID.TID 0000.0001)   set mate pointer for diag #    46  VVELMASS , Parms: VVr     MR , mate:    45
(PID.TID 0000.0001)   set mate pointer for diag #   258  GM_PsiX  , Parms: UU      LR , mate:   259
(PID.TID 0000.0001)   set mate pointer for diag #   259  GM_PsiY  , Parms: VV      LR , mate:   258
(PID.TID 0000.0001)   set mate pointer for diag #   134  DFxE_TH  , Parms: UU      MR , mate:   135
(PID.TID 0000.0001)   set mate pointer for diag #   135  DFyE_TH  , Parms: VV      MR , mate:   134
(PID.TID 0000.0001)   set mate pointer for diag #   131  ADVx_TH  , Parms: UU      MR , mate:   132
(PID.TID 0000.0001)   set mate pointer for diag #   132  ADVy_TH  , Parms: VV      MR , mate:   131
(PID.TID 0000.0001)   set mate pointer for diag #   141  DFxE_SLT , Parms: UU      MR , mate:   142
(PID.TID 0000.0001)   set mate pointer for diag #   142  DFyE_SLT , Parms: VV      MR , mate:   141
(PID.TID 0000.0001)   set mate pointer for diag #   138  ADVx_SLT , Parms: UU      MR , mate:   139
(PID.TID 0000.0001)   set mate pointer for diag #   139  ADVy_SLT , Parms: VV      MR , mate:   138
(PID.TID 0000.0001) DIAGNOSTICS_SET_POINTERS: Set levels for Outp.Stream: state_2d_set1
(PID.TID 0000.0001)  Levels:       1.
(PID.TID 0000.0001) DIAGNOSTICS_SET_POINTERS: Set levels for Outp.Stream: state_3d_set1
(PID.TID 0000.0001)  Levels:       1.   2.   3.   4.   5.   6.   7.   8.   9.  10.  11.  12.  13.  14.  15.  16.  17.  18.  19.  20.
(PID.TID 0000.0001)  Levels:      21.  22.  23.  24.  25.  26.  27.  28.  29.  30.  31.  32.  33.  34.  35.  36.  37.  38.  39.  40.
(PID.TID 0000.0001)  Levels:      41.  42.  43.  44.  45.  46.  47.  48.  49.  50.
(PID.TID 0000.0001) DIAGNOSTICS_SET_POINTERS: Set levels for Outp.Stream: trsp_3d_set1
(PID.TID 0000.0001)  Levels:       1.   2.   3.   4.   5.   6.   7.   8.   9.  10.  11.  12.  13.  14.  15.  16.  17.  18.  19.  20.
(PID.TID 0000.0001)  Levels:      21.  22.  23.  24.  25.  26.  27.  28.  29.  30.  31.  32.  33.  34.  35.  36.  37.  38.  39.  40.
(PID.TID 0000.0001)  Levels:      41.  42.  43.  44.  45.  46.  47.  48.  49.  50.
(PID.TID 0000.0001) DIAGNOSTICS_SET_POINTERS: Set levels for Outp.Stream: trsp_3d_set2
(PID.TID 0000.0001)  Levels:       1.   2.   3.   4.   5.   6.   7.   8.   9.  10.  11.  12.  13.  14.  15.  16.  17.  18.  19.  20.
(PID.TID 0000.0001)  Levels:      21.  22.  23.  24.  25.  26.  27.  28.  29.  30.  31.  32.  33.  34.  35.  36.  37.  38.  39.  40.
(PID.TID 0000.0001)  Levels:      41.  42.  43.  44.  45.  46.  47.  48.  49.  50.
(PID.TID 0000.0001) DIAGNOSTICS_SET_POINTERS: done
(PID.TID 0000.0001) ------------------------------------------------------------
(PID.TID 0000.0001) DIAGSTATS_SET_REGIONS: define   0 regions:
(PID.TID 0000.0001) ------------------------------------------------------------
(PID.TID 0000.0001)   space allocated for all stats-diags:       0 levels
(PID.TID 0000.0001) DIAGSTATS_SET_POINTERS: done
(PID.TID 0000.0001) ------------------------------------------------------------
(PID.TID 0000.0001) INI_GLOBAL_DOMAIN: Found   0 CS-corner Pts in the domain
(PID.TID 0000.0001) %MON fCori_max                    =   1.4584096177006E-04
(PID.TID 0000.0001) %MON fCori_min                    =  -1.4429171327635E-04
(PID.TID 0000.0001) %MON fCori_mean                   =  -1.9531894197173E-06
(PID.TID 0000.0001) %MON fCori_sd                     =   1.0434730642309E-04
(PID.TID 0000.0001) %MON fCoriG_max                   =   1.4584247033981E-04
(PID.TID 0000.0001) %MON fCoriG_min                   =  -1.4435339896041E-04
(PID.TID 0000.0001) %MON fCoriG_mean                  =  -1.9303770726087E-06
(PID.TID 0000.0001) %MON fCoriG_sd                    =   1.0435958182593E-04
(PID.TID 0000.0001) %MON fCoriCos_max                 =   1.4584158744890E-04
(PID.TID 0000.0001) %MON fCoriCos_min                 =   6.6334365221135E-07
(PID.TID 0000.0001) %MON fCoriCos_mean                =   9.3876998486639E-05
(PID.TID 0000.0001) %MON fCoriCos_sd                  =   3.9559575367967E-05
(PID.TID 0000.0001) INI_CG2D: CG2D normalisation factor =  7.1522409280111305E-05
(PID.TID 0000.0001) INI_CG2D: cg2dTolerance = 7.112781640300954E-06 (Area=3.5801386115E+14)
(PID.TID 0000.0001) 
(PID.TID 0000.0001) // =======================================================
(PID.TID 0000.0001) // Model configuration
(PID.TID 0000.0001) // =======================================================
(PID.TID 0000.0001) //
(PID.TID 0000.0001) // "Physical" paramters ( PARM01 in namelist )
(PID.TID 0000.0001) //
(PID.TID 0000.0001) buoyancyRelation = /* Type of relation to get Buoyancy */
(PID.TID 0000.0001)               'OCEANIC'
(PID.TID 0000.0001)     ;
(PID.TID 0000.0001) fluidIsAir   =  /* fluid major constituent is Air */
(PID.TID 0000.0001)                   F
(PID.TID 0000.0001)     ;
(PID.TID 0000.0001) fluidIsWater =  /* fluid major constituent is Water */
(PID.TID 0000.0001)                   T
(PID.TID 0000.0001)     ;
(PID.TID 0000.0001) usingPCoords =  /* use p (or p*) vertical coordinate */
(PID.TID 0000.0001)                   F
(PID.TID 0000.0001)     ;
(PID.TID 0000.0001) usingZCoords =  /* use z (or z*) vertical coordinate */
(PID.TID 0000.0001)                   T
(PID.TID 0000.0001)     ;
(PID.TID 0000.0001) tRef =   /* Reference temperature profile ( oC or K ) */
(PID.TID 0000.0001)     3 @  2.300000000000000E+01,             /* K =  1:  3 */
(PID.TID 0000.0001)     3 @  2.200000000000000E+01,             /* K =  4:  6 */
(PID.TID 0000.0001)                 2.100000000000000E+01,      /* K =  7 */
(PID.TID 0000.0001)     2 @  2.000000000000000E+01,             /* K =  8:  9 */
(PID.TID 0000.0001)                 1.900000000000000E+01,      /* K = 10 */
(PID.TID 0000.0001)     2 @  1.800000000000000E+01,             /* K = 11: 12 */
(PID.TID 0000.0001)                 1.700000000000000E+01,      /* K = 13 */
(PID.TID 0000.0001)     2 @  1.600000000000000E+01,             /* K = 14: 15 */
(PID.TID 0000.0001)                 1.500000000000000E+01,      /* K = 16 */
(PID.TID 0000.0001)                 1.400000000000000E+01,      /* K = 17 */
(PID.TID 0000.0001)                 1.300000000000000E+01,      /* K = 18 */
(PID.TID 0000.0001)                 1.200000000000000E+01,      /* K = 19 */
(PID.TID 0000.0001)                 1.100000000000000E+01,      /* K = 20 */
(PID.TID 0000.0001)     2 @  9.000000000000000E+00,             /* K = 21: 22 */
(PID.TID 0000.0001)                 8.000000000000000E+00,      /* K = 23 */
(PID.TID 0000.0001)                 7.000000000000000E+00,      /* K = 24 */
(PID.TID 0000.0001)     2 @  6.000000000000000E+00,             /* K = 25: 26 */
(PID.TID 0000.0001)     2 @  5.000000000000000E+00,             /* K = 27: 28 */
(PID.TID 0000.0001)     3 @  4.000000000000000E+00,             /* K = 29: 31 */
(PID.TID 0000.0001)     3 @  3.000000000000000E+00,             /* K = 32: 34 */
(PID.TID 0000.0001)     4 @  2.000000000000000E+00,             /* K = 35: 38 */
(PID.TID 0000.0001)    12 @  1.000000000000000E+00              /* K = 39: 50 */
(PID.TID 0000.0001)     ;
(PID.TID 0000.0001) sRef =   /* Reference salinity profile ( g/kg ) */
(PID.TID 0000.0001)    50 @  3.450000000000000E+01              /* K =  1: 50 */
(PID.TID 0000.0001)     ;
(PID.TID 0000.0001) rhoRef =   /* Density vertical profile from (Ref,sRef)( kg/m^3 ) */
(PID.TID 0000.0001)                 1.023577603477196E+03,      /* K =  1 */
(PID.TID 0000.0001)                 1.023620777136617E+03,      /* K =  2 */
(PID.TID 0000.0001)                 1.023663941036695E+03,      /* K =  3 */
(PID.TID 0000.0001)                 1.023991015718490E+03,      /* K =  4 */
(PID.TID 0000.0001)                 1.024034306669897E+03,      /* K =  5 */
(PID.TID 0000.0001)                 1.024077587828753E+03,      /* K =  6 */
(PID.TID 0000.0001)                 1.024397096508654E+03,      /* K =  7 */
(PID.TID 0000.0001)                 1.024708673329142E+03,      /* K =  8 */
(PID.TID 0000.0001)                 1.024752319822224E+03,      /* K =  9 */
(PID.TID 0000.0001)                 1.025056259681613E+03,      /* K = 10 */
(PID.TID 0000.0001)                 1.025352644399205E+03,      /* K = 11 */
(PID.TID 0000.0001)                 1.025398957600777E+03,      /* K = 12 */
(PID.TID 0000.0001)                 1.025691882161156E+03,      /* K = 13 */
(PID.TID 0000.0001)                 1.025982177516916E+03,      /* K = 14 */
(PID.TID 0000.0001)                 1.026047240518975E+03,      /* K = 15 */
(PID.TID 0000.0001)                 1.026352942626987E+03,      /* K = 16 */
(PID.TID 0000.0001)                 1.026669770198047E+03,      /* K = 17 */
(PID.TID 0000.0001)                 1.027003315092154E+03,      /* K = 18 */
(PID.TID 0000.0001)                 1.027358849068998E+03,      /* K = 19 */
(PID.TID 0000.0001)                 1.027740686384669E+03,      /* K = 20 */
(PID.TID 0000.0001)                 1.028324553331053E+03,      /* K = 21 */
(PID.TID 0000.0001)                 1.028593221231610E+03,      /* K = 22 */
(PID.TID 0000.0001)                 1.029064475561974E+03,      /* K = 23 */
(PID.TID 0000.0001)                 1.029563084816846E+03,      /* K = 24 */
(PID.TID 0000.0001)                 1.030085114878761E+03,      /* K = 25 */
(PID.TID 0000.0001)                 1.030486089114683E+03,      /* K = 26 */
(PID.TID 0000.0001)                 1.031048075107123E+03,      /* K = 27 */
(PID.TID 0000.0001)                 1.031484375801639E+03,      /* K = 28 */
(PID.TID 0000.0001)                 1.032065171983561E+03,      /* K = 29 */
(PID.TID 0000.0001)                 1.032517922992319E+03,      /* K = 30 */
(PID.TID 0000.0001)                 1.032973670366665E+03,      /* K = 31 */
(PID.TID 0000.0001)                 1.033565488723493E+03,      /* K = 32 */
(PID.TID 0000.0001)                 1.034036918499537E+03,      /* K = 33 */
(PID.TID 0000.0001)                 1.034530048673366E+03,      /* K = 34 */
(PID.TID 0000.0001)                 1.035193531658509E+03,      /* K = 35 */
(PID.TID 0000.0001)                 1.035792065871340E+03,      /* K = 36 */
(PID.TID 0000.0001)                 1.036470923617515E+03,      /* K = 37 */
(PID.TID 0000.0001)                 1.037242016518006E+03,      /* K = 38 */
(PID.TID 0000.0001)                 1.038247118431009E+03,      /* K = 39 */
(PID.TID 0000.0001)                 1.039220297575330E+03,      /* K = 40 */
(PID.TID 0000.0001)                 1.040291819497536E+03,      /* K = 41 */
(PID.TID 0000.0001)                 1.041460110377147E+03,      /* K = 42 */
(PID.TID 0000.0001)                 1.042723334638967E+03,      /* K = 43 */
(PID.TID 0000.0001)                 1.044079512399653E+03,      /* K = 44 */
(PID.TID 0000.0001)                 1.045526523812687E+03,      /* K = 45 */
(PID.TID 0000.0001)                 1.047062113733185E+03,      /* K = 46 */
(PID.TID 0000.0001)                 1.048683896693754E+03,      /* K = 47 */
(PID.TID 0000.0001)                 1.050389362181617E+03,      /* K = 48 */
(PID.TID 0000.0001)                 1.052175880206080E+03,      /* K = 49 */
(PID.TID 0000.0001)                 1.054040707144287E+03       /* K = 50 */
(PID.TID 0000.0001)     ;
(PID.TID 0000.0001) dBdrRef = /* Vertical grad. of reference buoyancy [(m/s/r)^2] */
(PID.TID 0000.0001)     3 @  0.000000000000000E+00,             /* K =  1:  3 */
(PID.TID 0000.0001)                 2.706065538651213E-04,      /* K =  4 */
(PID.TID 0000.0001)     2 @  0.000000000000000E+00,             /* K =  5:  6 */
(PID.TID 0000.0001)                 2.632794562663490E-04,      /* K =  7 */
(PID.TID 0000.0001)                 2.554318021231947E-04,      /* K =  8 */
(PID.TID 0000.0001)                 0.000000000000000E+00,      /* K =  9 */
(PID.TID 0000.0001)                 2.461524232360561E-04,      /* K = 10 */
(PID.TID 0000.0001)                 2.348694431245364E-04,      /* K = 11 */
(PID.TID 0000.0001)                 0.000000000000000E+00,      /* K = 12 */
(PID.TID 0000.0001)                 2.056847859884566E-04,      /* K = 13 */
(PID.TID 0000.0001)                 1.777764506003336E-04,      /* K = 14 */
(PID.TID 0000.0001)                 0.000000000000000E+00,      /* K = 15 */
(PID.TID 0000.0001)                 1.203533867077665E-04,      /* K = 16 */
(PID.TID 0000.0001)                 9.288540355629585E-05,      /* K = 17 */
(PID.TID 0000.0001)                 7.115862770365155E-05,      /* K = 18 */
(PID.TID 0000.0001)                 5.484365820533800E-05,      /* K = 19 */
(PID.TID 0000.0001)                 4.290935507113214E-05,      /* K = 20 */
(PID.TID 0000.0001)                 6.658747741703880E-05,      /* K = 21 */
(PID.TID 0000.0001)                 0.000000000000000E+00,      /* K = 22 */
(PID.TID 0000.0001)                 2.323718420342036E-05,      /* K = 23 */
(PID.TID 0000.0001)                 1.974682037962757E-05,      /* K = 24 */
(PID.TID 0000.0001)                 1.709468932536602E-05,      /* K = 25 */
(PID.TID 0000.0001)                 0.000000000000000E+00,      /* K = 26 */
(PID.TID 0000.0001)                 1.455436545977052E-05,      /* K = 27 */
(PID.TID 0000.0001)                 0.000000000000000E+00,      /* K = 28 */
(PID.TID 0000.0001)                 1.315287111980149E-05,      /* K = 29 */
(PID.TID 0000.0001)     2 @  0.000000000000000E+00,             /* K = 30: 31 */
(PID.TID 0000.0001)                 1.240968507885233E-05,      /* K = 32 */
(PID.TID 0000.0001)     2 @  0.000000000000000E+00,             /* K = 33: 34 */
(PID.TID 0000.0001)                 1.045141607964570E-05,      /* K = 35 */
(PID.TID 0000.0001)     3 @  0.000000000000000E+00,             /* K = 36: 38 */
(PID.TID 0000.0001)                 6.628797113709505E-06,      /* K = 39 */
(PID.TID 0000.0001)    11 @  0.000000000000000E+00              /* K = 40: 50 */
(PID.TID 0000.0001)     ;
(PID.TID 0000.0001) useStrainTensionVisc= /* Use StrainTension Form of Viscous Operator */
(PID.TID 0000.0001)                   F
(PID.TID 0000.0001)     ;
(PID.TID 0000.0001) useVariableVisc = /* Use variable horizontal viscosity */
(PID.TID 0000.0001)                   T
(PID.TID 0000.0001)     ;
(PID.TID 0000.0001) useHarmonicVisc = /* Use harmonic horizontal viscosity */
(PID.TID 0000.0001)                   T
(PID.TID 0000.0001)     ;
(PID.TID 0000.0001) useBiharmonicVisc= /* Use biharmonic horiz.  viscosity */
(PID.TID 0000.0001)                   T
(PID.TID 0000.0001)     ;
(PID.TID 0000.0001) useSmag3D = /* Use isotropic 3-D Smagorinsky viscosity */
(PID.TID 0000.0001)                   F
(PID.TID 0000.0001)     ;
(PID.TID 0000.0001) viscAh  =   /* Lateral harmonic viscosity ( m^2/s ) */
(PID.TID 0000.0001)                 1.000000000000000E+00
(PID.TID 0000.0001)     ;
(PID.TID 0000.0001) viscAhMax = /* Maximum lateral harmonic viscosity ( m^2/s ) */
(PID.TID 0000.0001)                 1.000000000000000E+21
(PID.TID 0000.0001)     ;
(PID.TID 0000.0001) viscAhGrid = /* Grid dependent lateral harmonic viscosity ( non-dim. ) */
(PID.TID 0000.0001)                 2.000000000000000E-02
(PID.TID 0000.0001)     ;
(PID.TID 0000.0001) useFullLeith = /* Use Full Form of Leith Viscosity on/off flag*/
(PID.TID 0000.0001)                   F
(PID.TID 0000.0001)     ;
(PID.TID 0000.0001) useAreaViscLength = /* Use area for visc length instead of geom. mean*/
(PID.TID 0000.0001)                   F
(PID.TID 0000.0001)     ;
(PID.TID 0000.0001) viscC2leith = /* Leith harmonic visc. factor (on grad(vort),non-dim.) */
(PID.TID 0000.0001)                 0.000000000000000E+00
(PID.TID 0000.0001)     ;
(PID.TID 0000.0001) viscC2leithD = /* Leith harmonic viscosity factor (on grad(div),non-dim.)*/
(PID.TID 0000.0001)                 0.000000000000000E+00
(PID.TID 0000.0001)     ;
(PID.TID 0000.0001) viscC2LeithQG = /* QG Leith harmonic viscosity factor (non-dim.)*/
(PID.TID 0000.0001)                 0.000000000000000E+00
(PID.TID 0000.0001)     ;
(PID.TID 0000.0001) viscC2smag = /* Smagorinsky harmonic viscosity factor (non-dim.) */
(PID.TID 0000.0001)                 0.000000000000000E+00
(PID.TID 0000.0001)     ;
(PID.TID 0000.0001) viscA4  =   /* Lateral biharmonic viscosity ( m^4/s ) */
(PID.TID 0000.0001)                 0.000000000000000E+00
(PID.TID 0000.0001)     ;
(PID.TID 0000.0001) viscA4Max = /* Maximum biharmonic viscosity ( m^2/s ) */
(PID.TID 0000.0001)                 1.000000000000000E+21
(PID.TID 0000.0001)     ;
(PID.TID 0000.0001) viscA4Grid = /* Grid dependent biharmonic viscosity ( non-dim. ) */
(PID.TID 0000.0001)                 0.000000000000000E+00
(PID.TID 0000.0001)     ;
(PID.TID 0000.0001) viscC4leith = /* Leith biharm viscosity factor (on grad(vort), non-dim.)*/
(PID.TID 0000.0001)                 0.000000000000000E+00
(PID.TID 0000.0001)     ;
(PID.TID 0000.0001) viscC4leithD = /* Leith biharm viscosity factor (on grad(div), non-dim.) */
(PID.TID 0000.0001)                 0.000000000000000E+00
(PID.TID 0000.0001)     ;
(PID.TID 0000.0001) viscC4Smag = /* Smagorinsky biharm viscosity factor (non-dim) */
(PID.TID 0000.0001)                 0.000000000000000E+00
(PID.TID 0000.0001)     ;
(PID.TID 0000.0001) no_slip_sides =  /* Viscous BCs: No-slip sides */
(PID.TID 0000.0001)                   T
(PID.TID 0000.0001)     ;
(PID.TID 0000.0001) sideDragFactor = /* side-drag scaling factor (non-dim) */
(PID.TID 0000.0001)                 2.000000000000000E+00
(PID.TID 0000.0001)     ;
(PID.TID 0000.0001) viscArNr = /* vertical profile of vertical viscosity ( m^2/s )*/
(PID.TID 0000.0001)    50 @  1.000000000000000E-03              /* K =  1: 50 */
(PID.TID 0000.0001)     ;
(PID.TID 0000.0001) no_slip_bottom =  /* Viscous BCs: No-slip bottom */
(PID.TID 0000.0001)                   T
(PID.TID 0000.0001)     ;
(PID.TID 0000.0001) bottomVisc_pCell = /* Partial-cell in bottom Visc. BC */
(PID.TID 0000.0001)                   F
(PID.TID 0000.0001)     ;
(PID.TID 0000.0001) bottomDragLinear = /* linear bottom-drag coefficient ( m/s ) */
(PID.TID 0000.0001)                 0.000000000000000E+00
(PID.TID 0000.0001)     ;
(PID.TID 0000.0001) bottomDragQuadratic = /* quadratic bottom-drag coefficient (-) */
(PID.TID 0000.0001)                 1.000000000000000E-03
(PID.TID 0000.0001)     ;
(PID.TID 0000.0001) selectBotDragQuadr = /* select quadratic bottom drag options */
(PID.TID 0000.0001)                       0
(PID.TID 0000.0001)     ;
(PID.TID 0000.0001) diffKhT =   /* Laplacian diffusion of heat laterally ( m^2/s ) */
(PID.TID 0000.0001)                 1.000000000000000E+01
(PID.TID 0000.0001)     ;
(PID.TID 0000.0001) diffK4T =   /* Biharmonic diffusion of heat laterally ( m^4/s ) */
(PID.TID 0000.0001)                 0.000000000000000E+00
(PID.TID 0000.0001)     ;
(PID.TID 0000.0001) diffKhS =   /* Laplacian diffusion of salt laterally ( m^2/s ) */
(PID.TID 0000.0001)                 1.000000000000000E+01
(PID.TID 0000.0001)     ;
(PID.TID 0000.0001) diffK4S =   /* Biharmonic diffusion of salt laterally ( m^4/s ) */
(PID.TID 0000.0001)                 0.000000000000000E+00
(PID.TID 0000.0001)     ;
(PID.TID 0000.0001) diffKrNrT = /* vertical profile of vertical diffusion of Temp ( m^2/s )*/
(PID.TID 0000.0001)    50 @  1.000000000000000E-05              /* K =  1: 50 */
(PID.TID 0000.0001)     ;
(PID.TID 0000.0001) diffKrNrS = /* vertical profile of vertical diffusion of Salt ( m^2/s )*/
(PID.TID 0000.0001)    50 @  1.000000000000000E-05              /* K =  1: 50 */
(PID.TID 0000.0001)     ;
(PID.TID 0000.0001) diffKrBL79surf = /* Surface diffusion for Bryan and Lewis 79 ( m^2/s ) */
(PID.TID 0000.0001)                 0.000000000000000E+00
(PID.TID 0000.0001)     ;
(PID.TID 0000.0001) diffKrBL79deep = /* Deep diffusion for Bryan and Lewis 1979 ( m^2/s ) */
(PID.TID 0000.0001)                 0.000000000000000E+00
(PID.TID 0000.0001)     ;
(PID.TID 0000.0001) diffKrBL79scl = /* Depth scale for Bryan and Lewis 1979 ( m ) */
(PID.TID 0000.0001)                 2.000000000000000E+02
(PID.TID 0000.0001)     ;
(PID.TID 0000.0001) diffKrBL79Ho = /* Turning depth for Bryan and Lewis 1979 ( m ) */
(PID.TID 0000.0001)                -2.000000000000000E+03
(PID.TID 0000.0001)     ;
(PID.TID 0000.0001) ivdc_kappa = /* Implicit Vertical Diffusivity for Convection ( m^2/s) */
(PID.TID 0000.0001)                 1.000000000000000E+01
(PID.TID 0000.0001)     ;
(PID.TID 0000.0001) hMixCriteria=  /* Criteria for mixed-layer diagnostic */
(PID.TID 0000.0001)                -8.000000000000000E-01
(PID.TID 0000.0001)     ;
(PID.TID 0000.0001) dRhoSmall =  /* Parameter for mixed-layer diagnostic */
(PID.TID 0000.0001)                 1.000000000000000E-06
(PID.TID 0000.0001)     ;
(PID.TID 0000.0001) hMixSmooth=  /* Smoothing parameter for mixed-layer diagnostic */
(PID.TID 0000.0001)                 0.000000000000000E+00
(PID.TID 0000.0001)     ;
(PID.TID 0000.0001) eosType =  /* Type of Equation of State */
(PID.TID 0000.0001)               'JMD95Z'
(PID.TID 0000.0001)     ;
(PID.TID 0000.0001) eosRefP0 = /* Reference atmospheric pressure for EOS ( Pa ) */
(PID.TID 0000.0001)                 1.013250000000000E+05
(PID.TID 0000.0001)     ;
(PID.TID 0000.0001) selectP_inEOS_Zc = /* select pressure to use in EOS (0,1,2,3) */
(PID.TID 0000.0001)                       0
(PID.TID 0000.0001)     0= -g*rhoConst*z ; 1= pRef (from tRef,sRef); 2= Hyd P ; 3= Hyd+NH P
(PID.TID 0000.0001)     ;
(PID.TID 0000.0001) surf_pRef = /* Surface reference pressure ( Pa ) */
(PID.TID 0000.0001)                 1.013250000000000E+05
(PID.TID 0000.0001)     ;
(PID.TID 0000.0001) HeatCapacity_Cp =  /* Specific heat capacity ( J/kg/K ) */
(PID.TID 0000.0001)                 3.994000000000000E+03
(PID.TID 0000.0001)     ;
(PID.TID 0000.0001) celsius2K = /* 0 degree Celsius converted to Kelvin ( K ) */
(PID.TID 0000.0001)                 2.731500000000000E+02
(PID.TID 0000.0001)     ;
(PID.TID 0000.0001) rhoConst  = /* Reference density (Boussinesq)  ( kg/m^3 ) */
(PID.TID 0000.0001)                 1.029000000000000E+03
(PID.TID 0000.0001)     ;
(PID.TID 0000.0001) rhoFacC = /* normalized Reference density @ cell-Center (-) */
(PID.TID 0000.0001)    50 @  1.000000000000000E+00              /* K =  1: 50 */
(PID.TID 0000.0001)     ;
(PID.TID 0000.0001) rhoFacF = /* normalized Reference density @ W-Interface (-) */
(PID.TID 0000.0001)    51 @  1.000000000000000E+00              /* K =  1: 51 */
(PID.TID 0000.0001)     ;
(PID.TID 0000.0001) rhoConstFresh = /* Fresh-water reference density ( kg/m^3 ) */
(PID.TID 0000.0001)                 1.000000000000000E+03
(PID.TID 0000.0001)     ;
(PID.TID 0000.0001) gravity =   /* Gravitational acceleration ( m/s^2 ) */
(PID.TID 0000.0001)                 9.810000000000000E+00
(PID.TID 0000.0001)     ;
(PID.TID 0000.0001) gBaro =   /* Barotropic gravity ( m/s^2 ) */
(PID.TID 0000.0001)                 9.810000000000000E+00
(PID.TID 0000.0001)     ;
(PID.TID 0000.0001) gravFacC = /* gravity factor (vs surf.) @ cell-Center (-) */
(PID.TID 0000.0001)    50 @  1.000000000000000E+00              /* K =  1: 50 */
(PID.TID 0000.0001)     ;
(PID.TID 0000.0001) gravFacF = /* gravity factor (vs surf.) @ W-Interface (-) */
(PID.TID 0000.0001)    51 @  1.000000000000000E+00              /* K =  1: 51 */
(PID.TID 0000.0001)     ;
(PID.TID 0000.0001) rotationPeriod =   /* Rotation Period ( s ) */
(PID.TID 0000.0001)                 8.616400000000000E+04
(PID.TID 0000.0001)     ;
(PID.TID 0000.0001) omega =   /* Angular velocity ( rad/s ) */
(PID.TID 0000.0001)                 7.292123516990375E-05
(PID.TID 0000.0001)     ;
(PID.TID 0000.0001) f0 =   /* Reference coriolis parameter ( 1/s ) */
(PID.TID 0000.0001)                 1.000000000000000E-04
(PID.TID 0000.0001)     ;
(PID.TID 0000.0001) beta =   /* Beta ( 1/(m.s) ) */
(PID.TID 0000.0001)                 9.999999999999999E-12
(PID.TID 0000.0001)     ;
(PID.TID 0000.0001) fPrime =   /* Second coriolis parameter ( 1/s ) */
(PID.TID 0000.0001)                 0.000000000000000E+00
(PID.TID 0000.0001)     ;
(PID.TID 0000.0001) rigidLid =   /* Rigid lid on/off flag */
(PID.TID 0000.0001)                   F
(PID.TID 0000.0001)     ;
(PID.TID 0000.0001) implicitFreeSurface =   /* Implicit free surface on/off flag */
(PID.TID 0000.0001)                   T
(PID.TID 0000.0001)     ;
(PID.TID 0000.0001) freeSurfFac =   /* Implicit free surface factor */
(PID.TID 0000.0001)                 1.000000000000000E+00
(PID.TID 0000.0001)     ;
(PID.TID 0000.0001) implicSurfPress =  /* Surface Pressure implicit factor (0-1) */
(PID.TID 0000.0001)                 1.000000000000000E+00
(PID.TID 0000.0001)     ;
(PID.TID 0000.0001) implicDiv2DFlow =  /* Barot. Flow Div. implicit factor (0-1) */
(PID.TID 0000.0001)                 1.000000000000000E+00
(PID.TID 0000.0001)     ;
(PID.TID 0000.0001) uniformLin_PhiSurf = /* use uniform Bo_surf on/off flag */
(PID.TID 0000.0001)                   T
(PID.TID 0000.0001)     ;
(PID.TID 0000.0001) uniformFreeSurfLev = /* free-surface level-index is uniform */
(PID.TID 0000.0001)                   T
(PID.TID 0000.0001)     ;
(PID.TID 0000.0001) sIceLoadFac =  /* scale factor for sIceLoad (0-1) */
(PID.TID 0000.0001)                 1.000000000000000E+00
(PID.TID 0000.0001)     ;
(PID.TID 0000.0001) hFacMin =   /* minimum partial cell factor (hFac) */
(PID.TID 0000.0001)                 2.000000000000000E-01
(PID.TID 0000.0001)     ;
(PID.TID 0000.0001) hFacMinDr = /* minimum partial cell thickness ( m) */
(PID.TID 0000.0001)                 5.000000000000000E+00
(PID.TID 0000.0001)     ;
(PID.TID 0000.0001) exactConserv =  /* Exact Volume Conservation on/off flag */
(PID.TID 0000.0001)                   T
(PID.TID 0000.0001)     ;
(PID.TID 0000.0001) linFSConserveTr = /* Tracer correction for Lin Free Surface on/off flag */
(PID.TID 0000.0001)                   F
(PID.TID 0000.0001)     ;
(PID.TID 0000.0001) nonlinFreeSurf = /* Non-linear Free Surf. options (-1,0,1,2,3)*/
(PID.TID 0000.0001)                       4
(PID.TID 0000.0001)      -1,0= Off ; 1,2,3= On, 2=+rescale gU,gV, 3=+update cg2d solv.
(PID.TID 0000.0001)     ;
(PID.TID 0000.0001) hFacInf =   /* lower threshold for hFac (nonlinFreeSurf only)*/
(PID.TID 0000.0001)                 2.000000000000000E-01
(PID.TID 0000.0001)     ;
(PID.TID 0000.0001) hFacSup =   /* upper threshold for hFac (nonlinFreeSurf only)*/
(PID.TID 0000.0001)                 2.000000000000000E+00
(PID.TID 0000.0001)     ;
(PID.TID 0000.0001) select_rStar = /* r* Vertical coord. options (=0 r coord.; >0 uses r*)*/
(PID.TID 0000.0001)                       2
(PID.TID 0000.0001)     ;
(PID.TID 0000.0001) useRealFreshWaterFlux = /* Real Fresh Water Flux on/off flag*/
(PID.TID 0000.0001)                   T
(PID.TID 0000.0001)     ;
(PID.TID 0000.0001) temp_EvPrRn = /* Temp. of Evap/Prec/R (UNSET=use local T)(oC)*/
(PID.TID 0000.0001)                 1.234567000000000E+05
(PID.TID 0000.0001)     ;
(PID.TID 0000.0001) salt_EvPrRn = /* Salin. of Evap/Prec/R (UNSET=use local S)(g/kg)*/
(PID.TID 0000.0001)                 0.000000000000000E+00
(PID.TID 0000.0001)     ;
(PID.TID 0000.0001) selectAddFluid = /* option for mass source/sink of fluid (=0: off) */
(PID.TID 0000.0001)                       0
(PID.TID 0000.0001)     ;
(PID.TID 0000.0001) temp_addMass = /* Temp. of addMass array (UNSET=use local T)(oC)*/
(PID.TID 0000.0001)                 1.234567000000000E+05
(PID.TID 0000.0001)     ;
(PID.TID 0000.0001) salt_addMass = /* Salin. of addMass array (UNSET=use local S)(g/kg)*/
(PID.TID 0000.0001)                 0.000000000000000E+00
(PID.TID 0000.0001)     ;
(PID.TID 0000.0001) use3Dsolver = /* use 3-D pressure solver on/off flag */
(PID.TID 0000.0001)                   F
(PID.TID 0000.0001)     ;
(PID.TID 0000.0001) nonHydrostatic =  /* Non-Hydrostatic on/off flag */
(PID.TID 0000.0001)                   F
(PID.TID 0000.0001)     ;
(PID.TID 0000.0001) nh_Am2 = /* Non-Hydrostatic terms scaling factor */
(PID.TID 0000.0001)                 1.000000000000000E+00
(PID.TID 0000.0001)     ;
(PID.TID 0000.0001) implicitNHPress = /* Non-Hyd Pressure implicit factor (0-1)*/
(PID.TID 0000.0001)                 1.000000000000000E+00
(PID.TID 0000.0001)     ;
(PID.TID 0000.0001) selectNHfreeSurf = /* Non-Hyd (free-)Surface option */
(PID.TID 0000.0001)                       0
(PID.TID 0000.0001)     ;
(PID.TID 0000.0001) quasiHydrostatic = /* Quasi-Hydrostatic on/off flag */
(PID.TID 0000.0001)                   F
(PID.TID 0000.0001)     ;
(PID.TID 0000.0001) calc_wVelocity = /* vertical velocity calculation on/off flag */
(PID.TID 0000.0001)                   T
(PID.TID 0000.0001)     ;
(PID.TID 0000.0001) momStepping =  /* Momentum equation on/off flag */
(PID.TID 0000.0001)                   T
(PID.TID 0000.0001)     ;
(PID.TID 0000.0001) vectorInvariantMomentum= /* Vector-Invariant Momentum on/off */
(PID.TID 0000.0001)                   T
(PID.TID 0000.0001)     ;
(PID.TID 0000.0001) momAdvection =  /* Momentum advection on/off flag */
(PID.TID 0000.0001)                   T
(PID.TID 0000.0001)     ;
(PID.TID 0000.0001) momViscosity =  /* Momentum viscosity on/off flag */
(PID.TID 0000.0001)                   T
(PID.TID 0000.0001)     ;
(PID.TID 0000.0001) momImplVertAdv= /* Momentum implicit vert. advection on/off*/
(PID.TID 0000.0001)                   F
(PID.TID 0000.0001)     ;
(PID.TID 0000.0001) implicitViscosity = /* Implicit viscosity on/off flag */
(PID.TID 0000.0001)                   T
(PID.TID 0000.0001)     ;
(PID.TID 0000.0001) selectImplicitDrag= /* Implicit bot Drag options (0,1,2)*/
(PID.TID 0000.0001)                       0
(PID.TID 0000.0001)     0= Expl. ; 1= Impl. on provis. Vel ; 2= Fully Impl (with surf.P)
(PID.TID 0000.0001)     ;
(PID.TID 0000.0001) metricTerms =  /* metric-Terms on/off flag */
(PID.TID 0000.0001)                   F
(PID.TID 0000.0001)     ;
(PID.TID 0000.0001) useNHMTerms = /* Non-Hydrostatic Metric-Terms on/off */
(PID.TID 0000.0001)                   F
(PID.TID 0000.0001)     ;
(PID.TID 0000.0001) selectCoriMap = /* Coriolis Map options (0,1,2,3)*/
(PID.TID 0000.0001)                       2
(PID.TID 0000.0001)     0= f-Plane ; 1= Beta-Plane ; 2= Spherical ; 3= read from file
(PID.TID 0000.0001)     ;
(PID.TID 0000.0001) use3dCoriolis = /* 3-D Coriolis on/off flag */
(PID.TID 0000.0001)                   F
(PID.TID 0000.0001)     ;
(PID.TID 0000.0001) useCoriolis =  /* Coriolis on/off flag */
(PID.TID 0000.0001)                   T
(PID.TID 0000.0001)     ;
(PID.TID 0000.0001) useCDscheme =  /* CD scheme on/off flag */
(PID.TID 0000.0001)                   F
(PID.TID 0000.0001)     ;
(PID.TID 0000.0001) selectCoriScheme= /* Scheme selector for Coriolis-Term */
(PID.TID 0000.0001)                       1
(PID.TID 0000.0001)    = 0 : original discretization (simple averaging, no hFac)
(PID.TID 0000.0001)    = 1 : Wet-point averaging (Jamar & Ozer 1986)
(PID.TID 0000.0001)    = 2 : hFac weighted average (Angular Mom. conserving)
(PID.TID 0000.0001)    = 3 : energy conserving scheme using hFac weighted average
(PID.TID 0000.0001)     ;
(PID.TID 0000.0001) useAbsVorticity= /* V.I Works with f+zeta in Coriolis */
(PID.TID 0000.0001)                   F
(PID.TID 0000.0001)     ;
(PID.TID 0000.0001) selectVortScheme= /* V.I Scheme selector for Vorticity-Term */
(PID.TID 0000.0001)                       1
(PID.TID 0000.0001)    = 0 : enstrophy (Shallow-Water Eq.) conserving scheme by Sadourny, JAS 75
(PID.TID 0000.0001)    = 1 : same as 0 with modified hFac
(PID.TID 0000.0001)    = 2 : energy conserving scheme (used by Sadourny in JAS 75 paper)
(PID.TID 0000.0001)    = 3 : energy (general) and enstrophy (2D, nonDiv.) conserving scheme
(PID.TID 0000.0001)          from Sadourny (Burridge & Haseler, ECMWF Rep.4, 1977)
(PID.TID 0000.0001)     ;
(PID.TID 0000.0001) useJamartMomAdv= /* V.I Non-linear terms Jamart flag */
(PID.TID 0000.0001)                   F
(PID.TID 0000.0001)     ;
(PID.TID 0000.0001) upwindVorticity= /* V.I Upwind bias vorticity flag */
(PID.TID 0000.0001)                   F
(PID.TID 0000.0001)     ;
(PID.TID 0000.0001) highOrderVorticity= /* V.I High order vort. advect. flag */
(PID.TID 0000.0001)                   F
(PID.TID 0000.0001)     ;
(PID.TID 0000.0001) upwindShear= /* V.I Upwind vertical Shear advection flag */
(PID.TID 0000.0001)                   F
(PID.TID 0000.0001)     ;
(PID.TID 0000.0001) selectKEscheme= /* V.I Kinetic Energy scheme selector */
(PID.TID 0000.0001)                       0
(PID.TID 0000.0001)     ;
(PID.TID 0000.0001) momForcing =  /* Momentum forcing on/off flag */
(PID.TID 0000.0001)                   T
(PID.TID 0000.0001)     ;
(PID.TID 0000.0001) momTidalForcing = /* Momentum Tidal forcing on/off flag */
(PID.TID 0000.0001)                   T
(PID.TID 0000.0001)     ;
(PID.TID 0000.0001) momPressureForcing =  /* Momentum pressure term on/off flag */
(PID.TID 0000.0001)                   T
(PID.TID 0000.0001)     ;
(PID.TID 0000.0001) implicitIntGravWave= /* Implicit Internal Gravity Wave flag */
(PID.TID 0000.0001)                   F
(PID.TID 0000.0001)     ;
(PID.TID 0000.0001) staggerTimeStep =    /* Stagger time stepping on/off flag */
(PID.TID 0000.0001)                   T
(PID.TID 0000.0001)     ;
(PID.TID 0000.0001) doResetHFactors = /* reset thickness factors @ each time-step */
(PID.TID 0000.0001)                   T
(PID.TID 0000.0001)     ;
(PID.TID 0000.0001) multiDimAdvection =  /* enable/disable Multi-Dim Advection */
(PID.TID 0000.0001)                   T
(PID.TID 0000.0001)     ;
(PID.TID 0000.0001) useMultiDimAdvec =   /* Multi-Dim Advection is/is-not used */
(PID.TID 0000.0001)                   T
(PID.TID 0000.0001)     ;
(PID.TID 0000.0001) implicitDiffusion = /* Implicit Diffusion on/off flag */
(PID.TID 0000.0001)                   T
(PID.TID 0000.0001)     ;
(PID.TID 0000.0001) tempStepping =  /* Temperature equation on/off flag */
(PID.TID 0000.0001)                   T
(PID.TID 0000.0001)     ;
(PID.TID 0000.0001) tempAdvection = /* Temperature advection on/off flag */
(PID.TID 0000.0001)                   T
(PID.TID 0000.0001)     ;
(PID.TID 0000.0001) tempImplVertAdv = /* Temp. implicit vert. advection on/off */
(PID.TID 0000.0001)                   F
(PID.TID 0000.0001)     ;
(PID.TID 0000.0001) tempForcing  =  /* Temperature forcing on/off flag */
(PID.TID 0000.0001)                   T
(PID.TID 0000.0001)     ;
(PID.TID 0000.0001) balanceQnet  =  /* balance net heat-flux on/off flag */
(PID.TID 0000.0001)                   F
(PID.TID 0000.0001)     ;
(PID.TID 0000.0001) doThetaClimRelax = /* apply SST relaxation on/off flag */
(PID.TID 0000.0001)                   F
(PID.TID 0000.0001)     ;
(PID.TID 0000.0001) balanceThetaClimRelax= /* balance SST relaxation on/off flag */
(PID.TID 0000.0001)                   F
(PID.TID 0000.0001)     ;
(PID.TID 0000.0001) tempIsActiveTr = /* Temp. is a dynamically Active Tracer */
(PID.TID 0000.0001)                   T
(PID.TID 0000.0001)     ;
(PID.TID 0000.0001) saltStepping =  /* Salinity equation on/off flag */
(PID.TID 0000.0001)                   T
(PID.TID 0000.0001)     ;
(PID.TID 0000.0001) saltAdvection = /* Salinity advection on/off flag */
(PID.TID 0000.0001)                   T
(PID.TID 0000.0001)     ;
(PID.TID 0000.0001) saltImplVertAdv = /* Sali. implicit vert. advection on/off */
(PID.TID 0000.0001)                   F
(PID.TID 0000.0001)     ;
(PID.TID 0000.0001) saltForcing  =  /* Salinity forcing on/off flag */
(PID.TID 0000.0001)                   T
(PID.TID 0000.0001)     ;
(PID.TID 0000.0001) selectBalanceEmPmR = /* balancing glob.mean EmPmR selector */
(PID.TID 0000.0001)                       1
(PID.TID 0000.0001)     ;
(PID.TID 0000.0001) doSaltClimRelax = /* apply SSS relaxation on/off flag */
(PID.TID 0000.0001)                   T
(PID.TID 0000.0001)     ;
(PID.TID 0000.0001) balanceSaltClimRelax= /* balance SSS relaxation on/off flag */
(PID.TID 0000.0001)                   T
(PID.TID 0000.0001)     ;
(PID.TID 0000.0001) saltIsActiveTr = /* Salt  is a dynamically Active Tracer */
(PID.TID 0000.0001)                   T
(PID.TID 0000.0001)     ;
(PID.TID 0000.0001)  readBinaryPrec = /* Precision used for reading binary files */
(PID.TID 0000.0001)                      32
(PID.TID 0000.0001)     ;
(PID.TID 0000.0001) writeBinaryPrec = /* Precision used for writing binary files */
(PID.TID 0000.0001)                      32
(PID.TID 0000.0001)     ;
(PID.TID 0000.0001) balancePrintMean = /* print means for balancing fluxes */
(PID.TID 0000.0001)                   F
(PID.TID 0000.0001)     ;
(PID.TID 0000.0001)  rwSuffixType =   /* select format of mds file suffix */
(PID.TID 0000.0001)                       0
(PID.TID 0000.0001)    = 0 : myIter (I10.10) ;   = 1 : 100*myTime (100th sec) ;
(PID.TID 0000.0001)    = 2 : myTime (seconds);   = 3 : myTime/360 (10th of hr);
(PID.TID 0000.0001)    = 4 : myTime/3600 (hours)
(PID.TID 0000.0001)     ;
(PID.TID 0000.0001)  globalFiles = /* write "global" (=not per tile) files */
(PID.TID 0000.0001)                   F
(PID.TID 0000.0001)     ;
(PID.TID 0000.0001)  useSingleCpuIO = /* only master MPI process does I/O */
(PID.TID 0000.0001)                   T
(PID.TID 0000.0001)     ;
(PID.TID 0000.0001)  useSingleCpuInput = /* only master process reads input */
(PID.TID 0000.0001)                   T
(PID.TID 0000.0001)     ;
(PID.TID 0000.0001) /* debLev[*]  : level of debug & auxiliary message printing */
(PID.TID 0000.0001) debLevZero =  0 ; /* level of disabled aux. msg printing */
(PID.TID 0000.0001)    debLevA =  1 ; /* level of minimum  aux. msg printing */
(PID.TID 0000.0001)    debLevB =  2 ; /* level of low aux. print (report read-file opening)*/
(PID.TID 0000.0001)    debLevC =  3 ; /* level of moderate debug prt (most pkgs debug msg) */
(PID.TID 0000.0001)    debLevD =  4 ; /* level of enhanced debug prt (add DEBUG_STATS prt) */
(PID.TID 0000.0001)    debLevE =  5 ; /* level of extensive debug printing */
(PID.TID 0000.0001) debugLevel =  /* select debug printing level */
(PID.TID 0000.0001)                       1
(PID.TID 0000.0001)     ;
(PID.TID 0000.0001)  plotLevel =  /* select PLOT_FIELD printing level */
(PID.TID 0000.0001)                       1
(PID.TID 0000.0001)     ;
(PID.TID 0000.0001) //
(PID.TID 0000.0001) // Elliptic solver(s) paramters ( PARM02 in namelist )
(PID.TID 0000.0001) //
(PID.TID 0000.0001) cg2dMaxIters =   /* Upper limit on 2d con. grad iterations  */
(PID.TID 0000.0001)                     300
(PID.TID 0000.0001)     ;
(PID.TID 0000.0001) cg2dMinItersNSA =   /* Minimum number of iterations of 2d con. grad solver  */
(PID.TID 0000.0001)                       0
(PID.TID 0000.0001)     ;
(PID.TID 0000.0001) cg2dUseMinResSol= /* use cg2d last-iter(=0) / min-resid.(=1) solution */
(PID.TID 0000.0001)                       0
(PID.TID 0000.0001)     ;
(PID.TID 0000.0001) cg2dTargetResidual =   /* 2d con. grad target residual  */
(PID.TID 0000.0001)                 1.000000000000000E-07
(PID.TID 0000.0001)     ;
(PID.TID 0000.0001) cg2dTargetResWunit =   /* CG2d target residual [W units] */
(PID.TID 0000.0001)                 1.000000000000000E-12
(PID.TID 0000.0001)     ;
(PID.TID 0000.0001) cg2dPreCondFreq =   /* Freq. for updating cg2d preconditioner */
(PID.TID 0000.0001)                       1
(PID.TID 0000.0001)     ;
(PID.TID 0000.0001) useSRCGSolver =  /* use single reduction CG solver(s) */
(PID.TID 0000.0001)                   F
(PID.TID 0000.0001)     ;
(PID.TID 0000.0001) useNSACGSolver =  /* use not-self-adjoint CG solver */
(PID.TID 0000.0001)                   F
(PID.TID 0000.0001)     ;
(PID.TID 0000.0001) printResidualFreq = /* Freq. for printing CG residual */
(PID.TID 0000.0001)                       0
(PID.TID 0000.0001)     ;
(PID.TID 0000.0001) //
(PID.TID 0000.0001) // Time stepping paramters ( PARM03 in namelist )
(PID.TID 0000.0001) //
(PID.TID 0000.0001) deltaTMom =   /* Momentum equation timestep ( s ) */
(PID.TID 0000.0001)                 3.600000000000000E+03
(PID.TID 0000.0001)     ;
(PID.TID 0000.0001) deltaTFreeSurf = /* FreeSurface equation timestep ( s ) */
(PID.TID 0000.0001)                 3.600000000000000E+03
(PID.TID 0000.0001)     ;
(PID.TID 0000.0001) dTtracerLev =  /* Tracer equation timestep ( s ) */
(PID.TID 0000.0001)    50 @  3.600000000000000E+03              /* K =  1: 50 */
(PID.TID 0000.0001)     ;
(PID.TID 0000.0001) deltaTClock  =   /* Model clock timestep ( s ) */
(PID.TID 0000.0001)                 3.600000000000000E+03
(PID.TID 0000.0001)     ;
(PID.TID 0000.0001) cAdjFreq =   /* Convective adjustment interval ( s ) */
(PID.TID 0000.0001)                 0.000000000000000E+00
(PID.TID 0000.0001)     ;
(PID.TID 0000.0001) momForcingOutAB = /* =1: take Momentum Forcing out of Adams-Bash. stepping */
(PID.TID 0000.0001)                       1
(PID.TID 0000.0001)     ;
(PID.TID 0000.0001) tracForcingOutAB = /* =1: take T,S,pTr Forcing out of Adams-Bash. stepping */
(PID.TID 0000.0001)                       1
(PID.TID 0000.0001)     ;
(PID.TID 0000.0001) momDissip_In_AB = /* put Dissipation Tendency in Adams-Bash. stepping */
(PID.TID 0000.0001)                   F
(PID.TID 0000.0001)     ;
(PID.TID 0000.0001) doAB_onGtGs = /* apply AB on Tendencies (rather than on T,S)*/
(PID.TID 0000.0001)                   F
(PID.TID 0000.0001)     ;
(PID.TID 0000.0001) abEps =   /* Adams-Bashforth-2 stabilizing weight */
(PID.TID 0000.0001)                 1.000000000000000E-02
(PID.TID 0000.0001)     ;
(PID.TID 0000.0001) alph_AB =   /* Adams-Bashforth-3 primary factor */
(PID.TID 0000.0001)                 5.000000000000000E-01
(PID.TID 0000.0001)     ;
(PID.TID 0000.0001) beta_AB =   /* Adams-Bashforth-3 secondary factor */
(PID.TID 0000.0001)                 2.811050000000000E-01
(PID.TID 0000.0001)     ;
(PID.TID 0000.0001) startFromPickupAB2= /* start from AB-2 pickup */
(PID.TID 0000.0001)                   F
(PID.TID 0000.0001)     ;
(PID.TID 0000.0001) applyExchUV_early = /* Apply EXCH to U,V earlier in time-step */
(PID.TID 0000.0001)                   F
(PID.TID 0000.0001)     ;
(PID.TID 0000.0001) pickupStrictlyMatch= /* stop if pickup do not strictly match */
(PID.TID 0000.0001)                   T
(PID.TID 0000.0001)     ;
(PID.TID 0000.0001) nIter0   =   /* Run starting timestep number */
(PID.TID 0000.0001)                       0
(PID.TID 0000.0001)     ;
(PID.TID 0000.0001) nTimeSteps = /* Number of timesteps */
(PID.TID 0000.0001)                       8
(PID.TID 0000.0001)     ;
(PID.TID 0000.0001) nEndIter =   /* Run ending timestep number */
(PID.TID 0000.0001)                       8
(PID.TID 0000.0001)     ;
(PID.TID 0000.0001) baseTime =   /* Model base time ( s ) */
(PID.TID 0000.0001)                 0.000000000000000E+00
(PID.TID 0000.0001)     ;
(PID.TID 0000.0001) startTime =  /* Run start time ( s ) */
(PID.TID 0000.0001)                 0.000000000000000E+00
(PID.TID 0000.0001)     ;
(PID.TID 0000.0001) endTime  =   /* Integration ending time ( s ) */
(PID.TID 0000.0001)                 2.880000000000000E+04
(PID.TID 0000.0001)     ;
(PID.TID 0000.0001) pChkPtFreq = /* Permanent restart/pickup file interval ( s ) */
(PID.TID 0000.0001)                 3.153600000000000E+07
(PID.TID 0000.0001)     ;
(PID.TID 0000.0001) chkPtFreq  = /* Rolling restart/pickup file interval ( s ) */
(PID.TID 0000.0001)                 3.153600000000000E+07
(PID.TID 0000.0001)     ;
(PID.TID 0000.0001) pickup_write_mdsio =   /* Model IO flag. */
(PID.TID 0000.0001)                   T
(PID.TID 0000.0001)     ;
(PID.TID 0000.0001) pickup_read_mdsio =   /* Model IO flag. */
(PID.TID 0000.0001)                   T
(PID.TID 0000.0001)     ;
(PID.TID 0000.0001) writePickupAtEnd =   /* Model IO flag. */
(PID.TID 0000.0001)                   T
(PID.TID 0000.0001)     ;
(PID.TID 0000.0001) dumpFreq =   /* Model state write out interval ( s ). */
(PID.TID 0000.0001)                 0.000000000000000E+00
(PID.TID 0000.0001)     ;
(PID.TID 0000.0001) dumpInitAndLast= /* write out Initial & Last iter. model state */
(PID.TID 0000.0001)                   T
(PID.TID 0000.0001)     ;
(PID.TID 0000.0001) snapshot_mdsio =   /* Model IO flag. */
(PID.TID 0000.0001)                   T
(PID.TID 0000.0001)     ;
(PID.TID 0000.0001) monitorFreq =   /* Monitor output interval ( s ). */
(PID.TID 0000.0001)                 3.600000000000000E+03
(PID.TID 0000.0001)     ;
(PID.TID 0000.0001) monitorSelect = /* select group of variables to monitor */
(PID.TID 0000.0001)                       3
(PID.TID 0000.0001)     ;
(PID.TID 0000.0001) monitor_stdio =   /* Model IO flag. */
(PID.TID 0000.0001)                   T
(PID.TID 0000.0001)     ;
(PID.TID 0000.0001) externForcingPeriod =   /* forcing period (s) */
(PID.TID 0000.0001)                 0.000000000000000E+00
(PID.TID 0000.0001)     ;
(PID.TID 0000.0001) externForcingCycle =   /* period of the cyle (s). */
(PID.TID 0000.0001)                 0.000000000000000E+00
(PID.TID 0000.0001)     ;
(PID.TID 0000.0001) tauThetaClimRelax =   /* relaxation time scale (s) */
(PID.TID 0000.0001)                 0.000000000000000E+00
(PID.TID 0000.0001)     ;
(PID.TID 0000.0001) tauSaltClimRelax =   /* relaxation time scale (s) */
(PID.TID 0000.0001)                 2.592000000000000E+07
(PID.TID 0000.0001)     ;
(PID.TID 0000.0001) latBandClimRelax =   /* max. Lat. where relaxation */
(PID.TID 0000.0001)                 1.800000000000000E+02
(PID.TID 0000.0001)     ;
(PID.TID 0000.0001) //
(PID.TID 0000.0001) // Gridding paramters ( PARM04 in namelist )
(PID.TID 0000.0001) //
(PID.TID 0000.0001) usingCartesianGrid = /* Cartesian coordinates flag ( True/False ) */
(PID.TID 0000.0001)                   F
(PID.TID 0000.0001)     ;
(PID.TID 0000.0001) usingCylindricalGrid = /* Cylindrical coordinates flag ( True/False ) */
(PID.TID 0000.0001)                   F
(PID.TID 0000.0001)     ;
(PID.TID 0000.0001) usingSphericalPolarGrid = /* Spherical coordinates flag ( True/False ) */
(PID.TID 0000.0001)                   F
(PID.TID 0000.0001)     ;
(PID.TID 0000.0001) usingCurvilinearGrid = /* Curvilinear coordinates flag ( True/False ) */
(PID.TID 0000.0001)                   T
(PID.TID 0000.0001)     ;
(PID.TID 0000.0001) useMin4hFacEdges = /* set hFacW,S as minimum of adjacent hFacC factor */
(PID.TID 0000.0001)                   F
(PID.TID 0000.0001)     ;
(PID.TID 0000.0001) interViscAr_pCell = /* account for partial-cell in interior vert. viscosity */
(PID.TID 0000.0001)                   F
(PID.TID 0000.0001)     ;
(PID.TID 0000.0001) interDiffKr_pCell = /* account for partial-cell in interior vert. diffusion */
(PID.TID 0000.0001)                   F
(PID.TID 0000.0001)     ;
(PID.TID 0000.0001) pCellMix_select = /* option to enhance mixing near surface & bottom */
(PID.TID 0000.0001)                       0
(PID.TID 0000.0001)     ;
(PID.TID 0000.0001) selectSigmaCoord = /* Hybrid-Sigma Vert. Coordinate option */
(PID.TID 0000.0001)                       0
(PID.TID 0000.0001)     ;
(PID.TID 0000.0001) rSigmaBnd = /* r/sigma transition ( units of r ==  m ) */
(PID.TID 0000.0001)                 1.234567000000000E+05
(PID.TID 0000.0001)     ;
(PID.TID 0000.0001) rkSign =   /* index orientation relative to vertical coordinate */
(PID.TID 0000.0001)                -1.000000000000000E+00
(PID.TID 0000.0001)     ;
(PID.TID 0000.0001) gravitySign = /* gravity orientation relative to vertical coordinate */
(PID.TID 0000.0001)                -1.000000000000000E+00
(PID.TID 0000.0001)     ;
(PID.TID 0000.0001) seaLev_Z =  /* reference height of sea-level [m] */
(PID.TID 0000.0001)                 0.000000000000000E+00
(PID.TID 0000.0001)     ;
(PID.TID 0000.0001) top_Pres =  /* reference pressure at the top [Pa] */
(PID.TID 0000.0001)                 0.000000000000000E+00
(PID.TID 0000.0001)     ;
(PID.TID 0000.0001) mass2rUnit = /* convert mass per unit area [kg/m2] to r-units [m] */
(PID.TID 0000.0001)                 9.718172983479105E-04
(PID.TID 0000.0001)     ;
(PID.TID 0000.0001) rUnit2mass = /* convert r-units [m] to mass per unit area [kg/m2] */
(PID.TID 0000.0001)                 1.029000000000000E+03
(PID.TID 0000.0001)     ;
(PID.TID 0000.0001) drC =   /* C spacing ( units of r ) */
(PID.TID 0000.0001)                 5.000000000000000E+00,      /* K =  1 */
(PID.TID 0000.0001)     6 @  1.000000000000000E+01,             /* K =  2:  7 */
(PID.TID 0000.0001)                 1.000500000000000E+01,      /* K =  8 */
(PID.TID 0000.0001)                 1.002000000000000E+01,      /* K =  9 */
(PID.TID 0000.0001)                 1.007000000000000E+01,      /* K = 10 */
(PID.TID 0000.0001)                 1.021500000000000E+01,      /* K = 11 */
(PID.TID 0000.0001)                 1.056000000000000E+01,      /* K = 12 */
(PID.TID 0000.0001)                 1.128000000000000E+01,      /* K = 13 */
(PID.TID 0000.0001)                 1.259000000000000E+01,      /* K = 14 */
(PID.TID 0000.0001)                 1.473000000000000E+01,      /* K = 15 */
(PID.TID 0000.0001)                 1.793000000000000E+01,      /* K = 16 */
(PID.TID 0000.0001)                 2.233500000000000E+01,      /* K = 17 */
(PID.TID 0000.0001)                 2.797500000000000E+01,      /* K = 18 */
(PID.TID 0000.0001)                 3.476000000000001E+01,      /* K = 19 */
(PID.TID 0000.0001)                 4.246000000000000E+01,      /* K = 20 */
(PID.TID 0000.0001)                 5.075000000000000E+01,      /* K = 21 */
(PID.TID 0000.0001)                 5.925000000000000E+01,      /* K = 22 */
(PID.TID 0000.0001)                 6.753999999999999E+01,      /* K = 23 */
(PID.TID 0000.0001)                 7.524000000000001E+01,      /* K = 24 */
(PID.TID 0000.0001)                 8.202500000000001E+01,      /* K = 25 */
(PID.TID 0000.0001)                 8.766500000000001E+01,      /* K = 26 */
(PID.TID 0000.0001)                 9.206999999999999E+01,      /* K = 27 */
(PID.TID 0000.0001)                 9.527000000000000E+01,      /* K = 28 */
(PID.TID 0000.0001)                 9.741499999999999E+01,      /* K = 29 */
(PID.TID 0000.0001)                 9.875000000000000E+01,      /* K = 30 */
(PID.TID 0000.0001)                 9.963000000000000E+01,      /* K = 31 */
(PID.TID 0000.0001)                 1.006700000000000E+02,      /* K = 32 */
(PID.TID 0000.0001)                 1.029450000000000E+02,      /* K = 33 */
(PID.TID 0000.0001)                 1.079450000000000E+02,      /* K = 34 */
(PID.TID 0000.0001)                 1.170800000000000E+02,      /* K = 35 */
(PID.TID 0000.0001)                 1.309600000000000E+02,      /* K = 36 */
(PID.TID 0000.0001)                 1.490150000000000E+02,      /* K = 37 */
(PID.TID 0000.0001)                 1.698850000000000E+02,      /* K = 38 */
(PID.TID 0000.0001)                 1.921900000000000E+02,      /* K = 39 */
(PID.TID 0000.0001)                 2.150250000000000E+02,      /* K = 40 */
(PID.TID 0000.0001)                 2.380000000000000E+02,      /* K = 41 */
(PID.TID 0000.0001)                 2.610000000000000E+02,      /* K = 42 */
(PID.TID 0000.0001)                 2.840000000000000E+02,      /* K = 43 */
(PID.TID 0000.0001)                 3.070000000000000E+02,      /* K = 44 */
(PID.TID 0000.0001)                 3.300000000000000E+02,      /* K = 45 */
(PID.TID 0000.0001)                 3.530000000000000E+02,      /* K = 46 */
(PID.TID 0000.0001)                 3.760000000000000E+02,      /* K = 47 */
(PID.TID 0000.0001)                 3.990000000000000E+02,      /* K = 48 */
(PID.TID 0000.0001)                 4.220000000000000E+02,      /* K = 49 */
(PID.TID 0000.0001)                 4.450000000000000E+02,      /* K = 50 */
(PID.TID 0000.0001)                 2.282500000000000E+02       /* K = 51 */
(PID.TID 0000.0001)     ;
(PID.TID 0000.0001) drF =   /* W spacing ( units of r ) */
(PID.TID 0000.0001)     7 @  1.000000000000000E+01,             /* K =  1:  7 */
(PID.TID 0000.0001)                 1.001000000000000E+01,      /* K =  8 */
(PID.TID 0000.0001)                 1.003000000000000E+01,      /* K =  9 */
(PID.TID 0000.0001)                 1.011000000000000E+01,      /* K = 10 */
(PID.TID 0000.0001)                 1.032000000000000E+01,      /* K = 11 */
(PID.TID 0000.0001)                 1.080000000000000E+01,      /* K = 12 */
(PID.TID 0000.0001)                 1.176000000000000E+01,      /* K = 13 */
(PID.TID 0000.0001)                 1.342000000000000E+01,      /* K = 14 */
(PID.TID 0000.0001)                 1.604000000000000E+01,      /* K = 15 */
(PID.TID 0000.0001)                 1.982000000000000E+01,      /* K = 16 */
(PID.TID 0000.0001)                 2.485000000000000E+01,      /* K = 17 */
(PID.TID 0000.0001)                 3.110000000000000E+01,      /* K = 18 */
(PID.TID 0000.0001)                 3.842000000000000E+01,      /* K = 19 */
(PID.TID 0000.0001)                 4.650000000000000E+01,      /* K = 20 */
(PID.TID 0000.0001)                 5.500000000000000E+01,      /* K = 21 */
(PID.TID 0000.0001)                 6.350000000000000E+01,      /* K = 22 */
(PID.TID 0000.0001)                 7.158000000000000E+01,      /* K = 23 */
(PID.TID 0000.0001)                 7.890000000000001E+01,      /* K = 24 */
(PID.TID 0000.0001)                 8.515000000000001E+01,      /* K = 25 */
(PID.TID 0000.0001)                 9.018000000000001E+01,      /* K = 26 */
(PID.TID 0000.0001)                 9.395999999999999E+01,      /* K = 27 */
(PID.TID 0000.0001)                 9.658000000000000E+01,      /* K = 28 */
(PID.TID 0000.0001)                 9.825000000000000E+01,      /* K = 29 */
(PID.TID 0000.0001)                 9.925000000000000E+01,      /* K = 30 */
(PID.TID 0000.0001)                 1.000100000000000E+02,      /* K = 31 */
(PID.TID 0000.0001)                 1.013300000000000E+02,      /* K = 32 */
(PID.TID 0000.0001)                 1.045600000000000E+02,      /* K = 33 */
(PID.TID 0000.0001)                 1.113300000000000E+02,      /* K = 34 */
(PID.TID 0000.0001)                 1.228300000000000E+02,      /* K = 35 */
(PID.TID 0000.0001)                 1.390900000000000E+02,      /* K = 36 */
(PID.TID 0000.0001)                 1.589400000000000E+02,      /* K = 37 */
(PID.TID 0000.0001)                 1.808300000000000E+02,      /* K = 38 */
(PID.TID 0000.0001)                 2.035500000000000E+02,      /* K = 39 */
(PID.TID 0000.0001)                 2.265000000000000E+02,      /* K = 40 */
(PID.TID 0000.0001)                 2.495000000000000E+02,      /* K = 41 */
(PID.TID 0000.0001)                 2.725000000000000E+02,      /* K = 42 */
(PID.TID 0000.0001)                 2.955000000000000E+02,      /* K = 43 */
(PID.TID 0000.0001)                 3.185000000000000E+02,      /* K = 44 */
(PID.TID 0000.0001)                 3.415000000000000E+02,      /* K = 45 */
(PID.TID 0000.0001)                 3.645000000000000E+02,      /* K = 46 */
(PID.TID 0000.0001)                 3.875000000000000E+02,      /* K = 47 */
(PID.TID 0000.0001)                 4.105000000000000E+02,      /* K = 48 */
(PID.TID 0000.0001)                 4.335000000000000E+02,      /* K = 49 */
(PID.TID 0000.0001)                 4.565000000000000E+02       /* K = 50 */
(PID.TID 0000.0001)     ;
(PID.TID 0000.0001) radius_fromHorizGrid = /* sphere Radius of input horiz. grid */
(PID.TID 0000.0001)                 6.370000000000000E+06
(PID.TID 0000.0001)     ;
(PID.TID 0000.0001) rSphere =  /* Radius ( ignored - cartesian, m - spherical ) */
(PID.TID 0000.0001)                 6.370000000000000E+06
(PID.TID 0000.0001)     ;
(PID.TID 0000.0001) deepAtmosphere = /* Deep/Shallow Atmosphere flag (True/False) */
(PID.TID 0000.0001)                   F
(PID.TID 0000.0001)     ;
(PID.TID 0000.0001) xC =  /* xC(:,1,:,1) : P-point X coord ( deg. or m if cartesian) */
(PID.TID 0000.0001)                -4.081468768806280E+01,      /* I =  1 */
(PID.TID 0000.0001)                -3.957104986057077E+01,      /* I =  2 */
(PID.TID 0000.0001)                -3.832217028656162E+01,      /* I =  3 */
(PID.TID 0000.0001)      . . .
(PID.TID 0000.0001)                 1.950000000000000E+01,      /* I = 88 */
(PID.TID 0000.0001)                 2.050000000000000E+01,      /* I = 89 */
(PID.TID 0000.0001)                 2.150000000000001E+01,      /* I = 90 */
(PID.TID 0000.0001)                 2.250000000000000E+01,      /* I = 91 */
(PID.TID 0000.0001)                 2.350000000000001E+01,      /* I = 92 */
(PID.TID 0000.0001)                 2.450000000000001E+01,      /* I = 93 */
(PID.TID 0000.0001)      . . .
(PID.TID 0000.0001)                 1.950000000000000E+01,      /* I =178 */
(PID.TID 0000.0001)                 2.050000000000000E+01,      /* I =179 */
(PID.TID 0000.0001)                 2.150000000000001E+01,      /* I =180 */
(PID.TID 0000.0001)                 2.250000000000000E+01,      /* I =181 */
(PID.TID 0000.0001)                 2.350000000000000E+01,      /* I =182 */
(PID.TID 0000.0001)                 2.450000000000000E+01,      /* I =183 */
(PID.TID 0000.0001)      . . .
(PID.TID 0000.0001)                 1.950000000000000E+01,      /* I =268 */
(PID.TID 0000.0001)                 2.050000000000000E+01,      /* I =269 */
(PID.TID 0000.0001)                 2.150000000000001E+01,      /* I =270 */
(PID.TID 0000.0001)                 2.250000000000000E+01,      /* I =271 */
(PID.TID 0000.0001)                 2.350000000000000E+01,      /* I =272 */
(PID.TID 0000.0001)                 2.450000000000001E+01,      /* I =273 */
(PID.TID 0000.0001)      . . .
(PID.TID 0000.0001)                 1.950000000000000E+01,      /* I =358 */
(PID.TID 0000.0001)                 2.050000000000000E+01,      /* I =359 */
(PID.TID 0000.0001)                 2.150000000000001E+01       /* I =360 */
(PID.TID 0000.0001)     ;
(PID.TID 0000.0001) yC =  /* yC(1,:,1,:) : P-point Y coord ( deg. or m if cartesian) */
(PID.TID 0000.0001)                -8.146222940368236E+01,      /* J =  1 */
(PID.TID 0000.0001)                -8.113083815286421E+01,      /* J =  2 */
(PID.TID 0000.0001)                -8.079504828233755E+01,      /* J =  3 */
(PID.TID 0000.0001)                -8.045491317322768E+01,      /* J =  4 */
(PID.TID 0000.0001)                -8.011048280590389E+01,      /* J =  5 */
(PID.TID 0000.0001)                -7.976180430515704E+01,      /* J =  6 */
(PID.TID 0000.0001)                -7.940892240526760E+01,      /* J =  7 */
(PID.TID 0000.0001)                -7.905187984845006E+01,      /* J =  8 */
(PID.TID 0000.0001)                -7.869071772754813E+01,      /* J =  9 */
(PID.TID 0000.0001)                -7.832547578199167E+01,      /* J = 10 */
(PID.TID 0000.0001)                -7.795619265432416E+01,      /* J = 11 */
(PID.TID 0000.0001)                -7.758290611340497E+01,      /* J = 12 */
(PID.TID 0000.0001)                -7.720565324926896E+01,      /* J = 13 */
(PID.TID 0000.0001)                -7.682447064385434E+01,      /* J = 14 */
(PID.TID 0000.0001)                -7.643939452107085E+01,      /* J = 15 */
(PID.TID 0000.0001)                -7.605046087901695E+01,      /* J = 16 */
(PID.TID 0000.0001)                -7.565770560699295E+01,      /* J = 17 */
(PID.TID 0000.0001)                -7.526116458910658E+01,      /* J = 18 */
(PID.TID 0000.0001)                -7.486087379640449E+01,      /* J = 19 */
(PID.TID 0000.0001)                -7.445686936886233E+01,      /* J = 20 */
(PID.TID 0000.0001)                -7.404918768854837E+01,      /* J = 21 */
(PID.TID 0000.0001)                -7.363786544493549E+01,      /* J = 22 */
(PID.TID 0000.0001)                -7.322293969328220E+01,      /* J = 23 */
(PID.TID 0000.0001)                -7.280444790682334E+01,      /* J = 24 */
(PID.TID 0000.0001)                -7.238242802328044E+01,      /* J = 25 */
(PID.TID 0000.0001)                -7.195691848614972E+01,      /* J = 26 */
(PID.TID 0000.0001)                -7.152795828082729E+01,      /* J = 27 */
(PID.TID 0000.0001)                -7.109558696482472E+01,      /* J = 28 */
(PID.TID 0000.0001)                -7.065984468855757E+01,      /* J = 29 */
(PID.TID 0000.0001)                -7.022077218177122E+01       /* J = 30 */
(PID.TID 0000.0001)     ;
(PID.TID 0000.0001) rcoord = /* P-point R coordinate (  units of r ) */
(PID.TID 0000.0001)                -5.000000000000000E+00,      /* K =  1 */
(PID.TID 0000.0001)                -1.500000000000000E+01,      /* K =  2 */
(PID.TID 0000.0001)                -2.500000000000000E+01,      /* K =  3 */
(PID.TID 0000.0001)                -3.500000000000000E+01,      /* K =  4 */
(PID.TID 0000.0001)                -4.500000000000000E+01,      /* K =  5 */
(PID.TID 0000.0001)                -5.500000000000000E+01,      /* K =  6 */
(PID.TID 0000.0001)                -6.500000000000000E+01,      /* K =  7 */
(PID.TID 0000.0001)                -7.500500000000000E+01,      /* K =  8 */
(PID.TID 0000.0001)                -8.502499999999999E+01,      /* K =  9 */
(PID.TID 0000.0001)                -9.509500000000000E+01,      /* K = 10 */
(PID.TID 0000.0001)                -1.053100000000000E+02,      /* K = 11 */
(PID.TID 0000.0001)                -1.158700000000000E+02,      /* K = 12 */
(PID.TID 0000.0001)                -1.271500000000000E+02,      /* K = 13 */
(PID.TID 0000.0001)                -1.397400000000000E+02,      /* K = 14 */
(PID.TID 0000.0001)                -1.544700000000000E+02,      /* K = 15 */
(PID.TID 0000.0001)                -1.724000000000000E+02,      /* K = 16 */
(PID.TID 0000.0001)                -1.947350000000000E+02,      /* K = 17 */
(PID.TID 0000.0001)                -2.227100000000000E+02,      /* K = 18 */
(PID.TID 0000.0001)                -2.574700000000000E+02,      /* K = 19 */
(PID.TID 0000.0001)                -2.999300000000000E+02,      /* K = 20 */
(PID.TID 0000.0001)                -3.506800000000000E+02,      /* K = 21 */
(PID.TID 0000.0001)                -4.099300000000000E+02,      /* K = 22 */
(PID.TID 0000.0001)                -4.774700000000000E+02,      /* K = 23 */
(PID.TID 0000.0001)                -5.527100000000000E+02,      /* K = 24 */
(PID.TID 0000.0001)                -6.347350000000000E+02,      /* K = 25 */
(PID.TID 0000.0001)                -7.224000000000000E+02,      /* K = 26 */
(PID.TID 0000.0001)                -8.144700000000000E+02,      /* K = 27 */
(PID.TID 0000.0001)                -9.097400000000000E+02,      /* K = 28 */
(PID.TID 0000.0001)                -1.007155000000000E+03,      /* K = 29 */
(PID.TID 0000.0001)                -1.105905000000000E+03,      /* K = 30 */
(PID.TID 0000.0001)                -1.205535000000000E+03,      /* K = 31 */
(PID.TID 0000.0001)                -1.306205000000000E+03,      /* K = 32 */
(PID.TID 0000.0001)                -1.409150000000000E+03,      /* K = 33 */
(PID.TID 0000.0001)                -1.517095000000000E+03,      /* K = 34 */
(PID.TID 0000.0001)                -1.634175000000000E+03,      /* K = 35 */
(PID.TID 0000.0001)                -1.765135000000000E+03,      /* K = 36 */
(PID.TID 0000.0001)                -1.914150000000000E+03,      /* K = 37 */
(PID.TID 0000.0001)                -2.084035000000000E+03,      /* K = 38 */
(PID.TID 0000.0001)                -2.276225000000000E+03,      /* K = 39 */
(PID.TID 0000.0001)                -2.491250000000000E+03,      /* K = 40 */
(PID.TID 0000.0001)                -2.729250000000000E+03,      /* K = 41 */
(PID.TID 0000.0001)                -2.990250000000000E+03,      /* K = 42 */
(PID.TID 0000.0001)                -3.274250000000000E+03,      /* K = 43 */
(PID.TID 0000.0001)                -3.581250000000000E+03,      /* K = 44 */
(PID.TID 0000.0001)                -3.911250000000000E+03,      /* K = 45 */
(PID.TID 0000.0001)                -4.264250000000000E+03,      /* K = 46 */
(PID.TID 0000.0001)                -4.640250000000000E+03,      /* K = 47 */
(PID.TID 0000.0001)                -5.039250000000000E+03,      /* K = 48 */
(PID.TID 0000.0001)                -5.461250000000000E+03,      /* K = 49 */
(PID.TID 0000.0001)                -5.906250000000000E+03       /* K = 50 */
(PID.TID 0000.0001)     ;
(PID.TID 0000.0001) rF =   /* W-Interf. R coordinate (  units of r ) */
(PID.TID 0000.0001)                 0.000000000000000E+00,      /* K =  1 */
(PID.TID 0000.0001)                -1.000000000000000E+01,      /* K =  2 */
(PID.TID 0000.0001)                -2.000000000000000E+01,      /* K =  3 */
(PID.TID 0000.0001)                -3.000000000000000E+01,      /* K =  4 */
(PID.TID 0000.0001)                -4.000000000000000E+01,      /* K =  5 */
(PID.TID 0000.0001)                -5.000000000000000E+01,      /* K =  6 */
(PID.TID 0000.0001)                -6.000000000000000E+01,      /* K =  7 */
(PID.TID 0000.0001)                -7.000000000000000E+01,      /* K =  8 */
(PID.TID 0000.0001)                -8.001000000000001E+01,      /* K =  9 */
(PID.TID 0000.0001)                -9.004000000000001E+01,      /* K = 10 */
(PID.TID 0000.0001)                -1.001500000000000E+02,      /* K = 11 */
(PID.TID 0000.0001)                -1.104700000000000E+02,      /* K = 12 */
(PID.TID 0000.0001)                -1.212700000000000E+02,      /* K = 13 */
(PID.TID 0000.0001)                -1.330300000000000E+02,      /* K = 14 */
(PID.TID 0000.0001)                -1.464500000000000E+02,      /* K = 15 */
(PID.TID 0000.0001)                -1.624900000000000E+02,      /* K = 16 */
(PID.TID 0000.0001)                -1.823100000000000E+02,      /* K = 17 */
(PID.TID 0000.0001)                -2.071600000000000E+02,      /* K = 18 */
(PID.TID 0000.0001)                -2.382600000000000E+02,      /* K = 19 */
(PID.TID 0000.0001)                -2.766799999999999E+02,      /* K = 20 */
(PID.TID 0000.0001)                -3.231799999999999E+02,      /* K = 21 */
(PID.TID 0000.0001)                -3.781799999999999E+02,      /* K = 22 */
(PID.TID 0000.0001)                -4.416799999999999E+02,      /* K = 23 */
(PID.TID 0000.0001)                -5.132600000000000E+02,      /* K = 24 */
(PID.TID 0000.0001)                -5.921600000000000E+02,      /* K = 25 */
(PID.TID 0000.0001)                -6.773099999999999E+02,      /* K = 26 */
(PID.TID 0000.0001)                -7.674900000000000E+02,      /* K = 27 */
(PID.TID 0000.0001)                -8.614500000000000E+02,      /* K = 28 */
(PID.TID 0000.0001)                -9.580300000000001E+02,      /* K = 29 */
(PID.TID 0000.0001)                -1.056280000000000E+03,      /* K = 30 */
(PID.TID 0000.0001)                -1.155530000000000E+03,      /* K = 31 */
(PID.TID 0000.0001)                -1.255540000000000E+03,      /* K = 32 */
(PID.TID 0000.0001)                -1.356870000000000E+03,      /* K = 33 */
(PID.TID 0000.0001)                -1.461430000000000E+03,      /* K = 34 */
(PID.TID 0000.0001)                -1.572760000000000E+03,      /* K = 35 */
(PID.TID 0000.0001)                -1.695590000000000E+03,      /* K = 36 */
(PID.TID 0000.0001)                -1.834680000000000E+03,      /* K = 37 */
(PID.TID 0000.0001)                -1.993620000000000E+03,      /* K = 38 */
(PID.TID 0000.0001)                -2.174450000000000E+03,      /* K = 39 */
(PID.TID 0000.0001)                -2.378000000000000E+03,      /* K = 40 */
(PID.TID 0000.0001)                -2.604500000000000E+03,      /* K = 41 */
(PID.TID 0000.0001)                -2.854000000000000E+03,      /* K = 42 */
(PID.TID 0000.0001)                -3.126500000000000E+03,      /* K = 43 */
(PID.TID 0000.0001)                -3.422000000000000E+03,      /* K = 44 */
(PID.TID 0000.0001)                -3.740500000000000E+03,      /* K = 45 */
(PID.TID 0000.0001)                -4.082000000000000E+03,      /* K = 46 */
(PID.TID 0000.0001)                -4.446500000000000E+03,      /* K = 47 */
(PID.TID 0000.0001)                -4.834000000000000E+03,      /* K = 48 */
(PID.TID 0000.0001)                -5.244500000000000E+03,      /* K = 49 */
(PID.TID 0000.0001)                -5.678000000000000E+03,      /* K = 50 */
(PID.TID 0000.0001)                -6.134500000000000E+03       /* K = 51 */
(PID.TID 0000.0001)     ;
(PID.TID 0000.0001) deepFacC = /* deep-model grid factor @ cell-Center (-) */
(PID.TID 0000.0001)    50 @  1.000000000000000E+00              /* K =  1: 50 */
(PID.TID 0000.0001)     ;
(PID.TID 0000.0001) deepFacF = /* deep-model grid factor @ W-Interface (-) */
(PID.TID 0000.0001)    51 @  1.000000000000000E+00              /* K =  1: 51 */
(PID.TID 0000.0001)     ;
(PID.TID 0000.0001) rotateGrid = /* use rotated grid ( True/False ) */
(PID.TID 0000.0001)                   F
(PID.TID 0000.0001)     ;
(PID.TID 0000.0001) phiEuler = /* Euler angle, rotation about original z-coordinate [rad] */
(PID.TID 0000.0001)                 0.000000000000000E+00
(PID.TID 0000.0001)     ;
(PID.TID 0000.0001) thetaEuler = /* Euler angle, rotation about new x-coordinate [rad] */
(PID.TID 0000.0001)                 0.000000000000000E+00
(PID.TID 0000.0001)     ;
(PID.TID 0000.0001) psiEuler = /* Euler angle, rotation about new z-coordinate [rad] */
(PID.TID 0000.0001)                 0.000000000000000E+00
(PID.TID 0000.0001)     ;
(PID.TID 0000.0001) dxF =  /* dxF(:,1,:,1) ( units: m ) */
(PID.TID 0000.0001)                 2.071152825743187E+04,      /* I =  1 */
(PID.TID 0000.0001)                 2.070365142756831E+04,      /* I =  2 */
(PID.TID 0000.0001)                 2.069635296570141E+04,      /* I =  3 */
(PID.TID 0000.0001)      . . .
(PID.TID 0000.0001)                 3.834415825124955E+04,      /* I = 88 */
(PID.TID 0000.0001)                 3.834415825124925E+04,      /* I = 89 */
(PID.TID 0000.0001)                 3.834415825124930E+04,      /* I = 90 */
(PID.TID 0000.0001)                 3.834415825124911E+04,      /* I = 91 */
(PID.TID 0000.0001)                 3.834415825124960E+04,      /* I = 92 */
(PID.TID 0000.0001)                 3.834415825124898E+04,      /* I = 93 */
(PID.TID 0000.0001)      . . .
(PID.TID 0000.0001)                 6.097585119898047E+04,      /* I =178 */
(PID.TID 0000.0001)                 6.097585119898075E+04,      /* I =179 */
(PID.TID 0000.0001)                 6.097585119898035E+04,      /* I =180 */
(PID.TID 0000.0001)                 6.097585119898095E+04,      /* I =181 */
(PID.TID 0000.0001)                 6.097585119898075E+04,      /* I =182 */
(PID.TID 0000.0001)                 6.097585119898073E+04,      /* I =183 */
(PID.TID 0000.0001)      . . .
(PID.TID 0000.0001)                 8.902811056630945E+04,      /* I =268 */
(PID.TID 0000.0001)                 8.902811056630930E+04,      /* I =269 */
(PID.TID 0000.0001)                 8.902811056630829E+04,      /* I =270 */
(PID.TID 0000.0001)                 8.902811056630986E+04,      /* I =271 */
(PID.TID 0000.0001)                 8.902811056630960E+04,      /* I =272 */
(PID.TID 0000.0001)                 8.902811056630845E+04,      /* I =273 */
(PID.TID 0000.0001)      . . .
(PID.TID 0000.0001)                 1.096583732724098E+05,      /* I =358 */
(PID.TID 0000.0001)                 1.096583732724104E+05,      /* I =359 */
(PID.TID 0000.0001)                 1.096583732724097E+05       /* I =360 */
(PID.TID 0000.0001)     ;
(PID.TID 0000.0001) dxF =  /* dxF(1,:,1,:) ( units: m ) */
(PID.TID 0000.0001)                 2.071152825743187E+04,      /* J =  1 */
(PID.TID 0000.0001)                 2.109117491456033E+04,      /* J =  2 */
(PID.TID 0000.0001)                 2.148525648961724E+04,      /* J =  3 */
(PID.TID 0000.0001)                 2.189377348588603E+04,      /* J =  4 */
(PID.TID 0000.0001)                 2.231672440915243E+04,      /* J =  5 */
(PID.TID 0000.0001)                 2.275410689480659E+04,      /* J =  6 */
(PID.TID 0000.0001)                 2.320591873318126E+04,      /* J =  7 */
(PID.TID 0000.0001)                 2.367215879054831E+04,      /* J =  8 */
(PID.TID 0000.0001)                 2.415282782538908E+04,      /* J =  9 */
(PID.TID 0000.0001)                 2.464792920101809E+04,      /* J = 10 */
(PID.TID 0000.0001)                 2.515746949702995E+04,      /* J = 11 */
(PID.TID 0000.0001)                 2.568145902315334E+04,      /* J = 12 */
(PID.TID 0000.0001)                 2.621991223981432E+04,      /* J = 13 */
(PID.TID 0000.0001)                 2.677284809033052E+04,      /* J = 14 */
(PID.TID 0000.0001)                 2.734029025013979E+04,      /* J = 15 */
(PID.TID 0000.0001)                 2.792226729855568E+04,      /* J = 16 */
(PID.TID 0000.0001)                 2.851881281852892E+04,      /* J = 17 */
(PID.TID 0000.0001)                 2.912996543046302E+04,      /* J = 18 */
(PID.TID 0000.0001)                 2.975576876502299E+04,      /* J = 19 */
(PID.TID 0000.0001)                 3.039627138062681E+04,      /* J = 20 */
(PID.TID 0000.0001)                 3.105152663065675E+04,      /* J = 21 */
(PID.TID 0000.0001)                 3.172159248542454E+04,      /* J = 22 */
(PID.TID 0000.0001)                 3.240653131349731E+04,      /* J = 23 */
(PID.TID 0000.0001)                 3.310640962675057E+04,      /* J = 24 */
(PID.TID 0000.0001)                 3.382129779388320E+04,      /* J = 25 */
(PID.TID 0000.0001)                 3.455126972555294E+04,      /* J = 26 */
(PID.TID 0000.0001)                 3.529640253603521E+04,      /* J = 27 */
(PID.TID 0000.0001)                 3.605677618612848E+04,      /* J = 28 */
(PID.TID 0000.0001)                 3.683247311866502E+04,      /* J = 29 */
(PID.TID 0000.0001)                 3.762357793548112E+04       /* J = 30 */
(PID.TID 0000.0001)     ;
(PID.TID 0000.0001) dyF =  /* dyF(:,1,:,1) ( units: m ) */
(PID.TID 0000.0001)                 3.700742300337598E+04,      /* I =  1 */
(PID.TID 0000.0001)                 3.707905556394973E+04,      /* I =  2 */
(PID.TID 0000.0001)                 3.714471828319018E+04,      /* I =  3 */
(PID.TID 0000.0001)      . . .
(PID.TID 0000.0001)                 3.907240002719907E+04,      /* I = 88 */
(PID.TID 0000.0001)                 3.907240002719765E+04,      /* I = 89 */
(PID.TID 0000.0001)                 3.907240002719907E+04,      /* I = 90 */
(PID.TID 0000.0001)                 3.907240002719907E+04,      /* I = 91 */
(PID.TID 0000.0001)                 3.907240002719765E+04,      /* I = 92 */
(PID.TID 0000.0001)                 3.907240002719907E+04,      /* I = 93 */
(PID.TID 0000.0001)      . . .
(PID.TID 0000.0001)                 5.944112367643459E+04,      /* I =178 */
(PID.TID 0000.0001)                 5.944112367643387E+04,      /* I =179 */
(PID.TID 0000.0001)                 5.944112367643457E+04,      /* I =180 */
(PID.TID 0000.0001)                 5.944112367643387E+04,      /* I =181 */
(PID.TID 0000.0001)                 5.944112367643457E+04,      /* I =182 */
(PID.TID 0000.0001)                 5.944112367643386E+04,      /* I =183 */
(PID.TID 0000.0001)      . . .
(PID.TID 0000.0001)                 8.908890573232871E+04,      /* I =268 */
(PID.TID 0000.0001)                 8.908890573232732E+04,      /* I =269 */
(PID.TID 0000.0001)                 8.908890573232873E+04,      /* I =270 */
(PID.TID 0000.0001)                 8.908890573232729E+04,      /* I =271 */
(PID.TID 0000.0001)                 8.908890573232516E+04,      /* I =272 */
(PID.TID 0000.0001)                 8.908890573232729E+04,      /* I =273 */
(PID.TID 0000.0001)      . . .
(PID.TID 0000.0001)                 1.080860813398986E+05,      /* I =358 */
(PID.TID 0000.0001)                 1.080860813398988E+05,      /* I =359 */
(PID.TID 0000.0001)                 1.080860813398986E+05       /* I =360 */
(PID.TID 0000.0001)     ;
(PID.TID 0000.0001) dyF =  /* dyF(1,:,1,:) ( units: m ) */
(PID.TID 0000.0001)                 3.700742300337598E+04,      /* J =  1 */
(PID.TID 0000.0001)                 3.745555642044499E+04,      /* J =  2 */
(PID.TID 0000.0001)                 3.790206217653974E+04,      /* J =  3 */
(PID.TID 0000.0001)                 3.834684105117956E+04,      /* J =  4 */
(PID.TID 0000.0001)                 3.878979459357282E+04,      /* J =  5 */
(PID.TID 0000.0001)                 3.923082521328924E+04,      /* J =  6 */
(PID.TID 0000.0001)                 3.966983623246408E+04,      /* J =  7 */
(PID.TID 0000.0001)                 4.010673190475840E+04,      /* J =  8 */
(PID.TID 0000.0001)                 4.054141740950450E+04,      /* J =  9 */
(PID.TID 0000.0001)                 4.097379882434454E+04,      /* J = 10 */
(PID.TID 0000.0001)                 4.140378308084428E+04,      /* J = 11 */
(PID.TID 0000.0001)                 4.183127790875583E+04,      /* J = 12 */
(PID.TID 0000.0001)                 4.225619177206317E+04,      /* J = 13 */
(PID.TID 0000.0001)                 4.267843379867976E+04,      /* J = 14 */
(PID.TID 0000.0001)                 4.309791371221616E+04,      /* J = 15 */
(PID.TID 0000.0001)                 4.351454176087940E+04,      /* J = 16 */
(PID.TID 0000.0001)                 4.392822864881465E+04,      /* J = 17 */
(PID.TID 0000.0001)                 4.433888547805120E+04,      /* J = 18 */
(PID.TID 0000.0001)                 4.474642369096899E+04,      /* J = 19 */
(PID.TID 0000.0001)                 4.515075502217317E+04,      /* J = 20 */
(PID.TID 0000.0001)                 4.555179145554101E+04,      /* J = 21 */
(PID.TID 0000.0001)                 4.594944520275577E+04,      /* J = 22 */
(PID.TID 0000.0001)                 4.634362867401398E+04,      /* J = 23 */
(PID.TID 0000.0001)                 4.673425447947427E+04,      /* J = 24 */
(PID.TID 0000.0001)                 4.712123544873745E+04,      /* J = 25 */
(PID.TID 0000.0001)                 4.750448467975499E+04,      /* J = 26 */
(PID.TID 0000.0001)                 4.788391567392174E+04,      /* J = 27 */
(PID.TID 0000.0001)                 4.825944271092693E+04,      /* J = 28 */
(PID.TID 0000.0001)                 4.863098220111143E+04,      /* J = 29 */
(PID.TID 0000.0001)                 4.899845499569884E+04       /* J = 30 */
(PID.TID 0000.0001)     ;
(PID.TID 0000.0001) dxG =  /* dxG(:,1,:,1) ( units: m ) */
(PID.TID 0000.0001)                 2.052711702021451E+04,      /* I =  1 */
(PID.TID 0000.0001)                 2.051953983526162E+04,      /* I =  2 */
(PID.TID 0000.0001)                 2.051251425926268E+04,      /* I =  3 */
(PID.TID 0000.0001)      . . .
(PID.TID 0000.0001)                 3.802493532420797E+04,      /* I = 88 */
(PID.TID 0000.0001)                 3.802493532420756E+04,      /* I = 89 */
(PID.TID 0000.0001)                 3.802493532420718E+04,      /* I = 90 */
(PID.TID 0000.0001)                 3.802493532420749E+04,      /* I = 91 */
(PID.TID 0000.0001)                 3.802493532420810E+04,      /* I = 92 */
(PID.TID 0000.0001)                 3.802493532420712E+04,      /* I = 93 */
(PID.TID 0000.0001)      . . .
(PID.TID 0000.0001)                 6.054232243597854E+04,      /* I =178 */
(PID.TID 0000.0001)                 6.054232243597873E+04,      /* I =179 */
(PID.TID 0000.0001)                 6.054232243597812E+04,      /* I =180 */
(PID.TID 0000.0001)                 6.054232243597840E+04,      /* I =181 */
(PID.TID 0000.0001)                 6.054232243597918E+04,      /* I =182 */
(PID.TID 0000.0001)                 6.054232243597802E+04,      /* I =183 */
(PID.TID 0000.0001)      . . .
(PID.TID 0000.0001)                 8.856156306761492E+04,      /* I =268 */
(PID.TID 0000.0001)                 8.856156306761476E+04,      /* I =269 */
(PID.TID 0000.0001)                 8.856156306761419E+04,      /* I =270 */
(PID.TID 0000.0001)                 8.856156306761489E+04,      /* I =271 */
(PID.TID 0000.0001)                 8.856156306761576E+04,      /* I =272 */
(PID.TID 0000.0001)                 8.856156306761407E+04,      /* I =273 */
(PID.TID 0000.0001)      . . .
(PID.TID 0000.0001)                 1.094986218245334E+05,      /* I =358 */
(PID.TID 0000.0001)                 1.094986218245327E+05,      /* I =359 */
(PID.TID 0000.0001)                 1.094986218245328E+05       /* I =360 */
(PID.TID 0000.0001)     ;
(PID.TID 0000.0001) dxG =  /* dxG(1,:,1,:) ( units: m ) */
(PID.TID 0000.0001)                 2.052711702021451E+04,      /* J =  1 */
(PID.TID 0000.0001)                 2.089954736357391E+04,      /* J =  2 */
(PID.TID 0000.0001)                 2.128641124518697E+04,      /* J =  3 */
(PID.TID 0000.0001)                 2.168771062037700E+04,      /* J =  4 */
(PID.TID 0000.0001)                 2.210344484655194E+04,      /* J =  5 */
(PID.TID 0000.0001)                 2.253361185972884E+04,      /* J =  6 */
(PID.TID 0000.0001)                 2.297820925105574E+04,      /* J =  7 */
(PID.TID 0000.0001)                 2.343723524028478E+04,      /* J =  8 */
(PID.TID 0000.0001)                 2.391068954427550E+04,      /* J =  9 */
(PID.TID 0000.0001)                 2.439857414125275E+04,      /* J = 10 */
(PID.TID 0000.0001)                 2.490089393241153E+04,      /* J = 11 */
(PID.TID 0000.0001)                 2.541765730414359E+04,      /* J = 12 */
(PID.TID 0000.0001)                 2.594887659459613E+04,      /* J = 13 */
(PID.TID 0000.0001)                 2.649456846940333E+04,      /* J = 14 */
(PID.TID 0000.0001)                 2.705475421181358E+04,      /* J = 15 */
(PID.TID 0000.0001)                 2.762945993231310E+04,      /* J = 16 */
(PID.TID 0000.0001)                 2.821871670385097E+04,      /* J = 17 */
(PID.TID 0000.0001)                 2.882256062780631E+04,      /* J = 18 */
(PID.TID 0000.0001)                 2.944103283669238E+04,      /* J = 19 */
(PID.TID 0000.0001)                 3.007417943861200E+04,      /* J = 20 */
(PID.TID 0000.0001)                 3.072205140902393E+04,      /* J = 21 */
(PID.TID 0000.0001)                 3.138470443467240E+04,      /* J = 22 */
(PID.TID 0000.0001)                 3.206219871470027E+04,      /* J = 23 */
(PID.TID 0000.0001)                 3.275459872326910E+04,      /* J = 24 */
(PID.TID 0000.0001)                 3.346197293831744E+04,      /* J = 25 */
(PID.TID 0000.0001)                 3.418439354048331E+04,      /* J = 26 */
(PID.TID 0000.0001)                 3.492193608585089E+04,      /* J = 27 */
(PID.TID 0000.0001)                 3.567467915738818E+04,      /* J = 28 */
(PID.TID 0000.0001)                 3.644270400216877E+04,      /* J = 29 */
(PID.TID 0000.0001)                 3.722609417427087E+04       /* J = 30 */
(PID.TID 0000.0001)     ;
(PID.TID 0000.0001) dyG =  /* dyG(:,1,:,1) ( units: m ) */
(PID.TID 0000.0001)                 3.696936823759973E+04,      /* I =  1 */
(PID.TID 0000.0001)                 3.704398547852144E+04,      /* I =  2 */
(PID.TID 0000.0001)                 3.711263318385338E+04,      /* I =  3 */
(PID.TID 0000.0001)      . . .
(PID.TID 0000.0001)                 3.907240002719624E+04,      /* I = 88 */
(PID.TID 0000.0001)                 3.907240002719908E+04,      /* I = 89 */
(PID.TID 0000.0001)                 3.907240002719766E+04,      /* I = 90 */
(PID.TID 0000.0001)                 3.907240002719624E+04,      /* I = 91 */
(PID.TID 0000.0001)                 3.907240002719624E+04,      /* I = 92 */
(PID.TID 0000.0001)                 3.907240002719907E+04,      /* I = 93 */
(PID.TID 0000.0001)      . . .
(PID.TID 0000.0001)                 5.944112367643598E+04,      /* I =178 */
(PID.TID 0000.0001)                 5.944112367643457E+04,      /* I =179 */
(PID.TID 0000.0001)                 5.944112367643457E+04,      /* I =180 */
(PID.TID 0000.0001)                 5.944112367643387E+04,      /* I =181 */
(PID.TID 0000.0001)                 5.944112367643457E+04,      /* I =182 */
(PID.TID 0000.0001)                 5.944112367643458E+04,      /* I =183 */
(PID.TID 0000.0001)      . . .
(PID.TID 0000.0001)                 8.908890573232729E+04,      /* I =268 */
(PID.TID 0000.0001)                 8.908890573232729E+04,      /* I =269 */
(PID.TID 0000.0001)                 8.908890573232729E+04,      /* I =270 */
(PID.TID 0000.0001)                 8.908890573232871E+04,      /* I =271 */
(PID.TID 0000.0001)                 8.908890573232868E+04,      /* I =272 */
(PID.TID 0000.0001)                 8.908890573232729E+04,      /* I =273 */
(PID.TID 0000.0001)      . . .
(PID.TID 0000.0001)                 1.080860813398988E+05,      /* I =358 */
(PID.TID 0000.0001)                 1.080860813398988E+05,      /* I =359 */
(PID.TID 0000.0001)                 1.080860813398988E+05       /* I =360 */
(PID.TID 0000.0001)     ;
(PID.TID 0000.0001) dyG =  /* dyG(1,:,1,:) ( units: m ) */
(PID.TID 0000.0001)                 3.696936823759973E+04,      /* J =  1 */
(PID.TID 0000.0001)                 3.741746190559281E+04,      /* J =  2 */
(PID.TID 0000.0001)                 3.786390067184393E+04,      /* J =  3 */
(PID.TID 0000.0001)                 3.830858172733455E+04,      /* J =  4 */
(PID.TID 0000.0001)                 3.875140319955796E+04,      /* J =  5 */
(PID.TID 0000.0001)                 3.919226424948571E+04,      /* J =  6 */
(PID.TID 0000.0001)                 3.963106512715793E+04,      /* J =  7 */
(PID.TID 0000.0001)                 4.006770719102380E+04,      /* J =  8 */
(PID.TID 0000.0001)                 4.050209290047463E+04,      /* J =  9 */
(PID.TID 0000.0001)                 4.093412578484027E+04,      /* J = 10 */
(PID.TID 0000.0001)                 4.136371039407872E+04,      /* J = 11 */
(PID.TID 0000.0001)                 4.179075223673176E+04,      /* J = 12 */
(PID.TID 0000.0001)                 4.221515770920290E+04,      /* J = 13 */
(PID.TID 0000.0001)                 4.263683401805614E+04,      /* J = 14 */
(PID.TID 0000.0001)                 4.305568910412182E+04,      /* J = 15 */
(PID.TID 0000.0001)                 4.347163156363047E+04,      /* J = 16 */
(PID.TID 0000.0001)                 4.388457057225752E+04,      /* J = 17 */
(PID.TID 0000.0001)                 4.429441581934092E+04,      /* J = 18 */
(PID.TID 0000.0001)                 4.470107744374240E+04,      /* J = 19 */
(PID.TID 0000.0001)                 4.510446597891348E+04,      /* J = 20 */
(PID.TID 0000.0001)                 4.550449230395439E+04,      /* J = 21 */
(PID.TID 0000.0001)                 4.590106761654920E+04,      /* J = 22 */
(PID.TID 0000.0001)                 4.629410339849156E+04,      /* J = 23 */
(PID.TID 0000.0001)                 4.668351141269982E+04,      /* J = 24 */
(PID.TID 0000.0001)                 4.706920371856177E+04,      /* J = 25 */
(PID.TID 0000.0001)                 4.745109271730031E+04,      /* J = 26 */
(PID.TID 0000.0001)                 4.782909128417812E+04,      /* J = 27 */
(PID.TID 0000.0001)                 4.820311314005602E+04,      /* J = 28 */
(PID.TID 0000.0001)                 4.857307420014453E+04,      /* J = 29 */
(PID.TID 0000.0001)                 4.893889490827491E+04       /* J = 30 */
(PID.TID 0000.0001)     ;
(PID.TID 0000.0001) dxC =  /* dxC(:,1,:,1) ( units: m ) */
(PID.TID 0000.0001)                 2.071567651695695E+04,      /* I =  1 */
(PID.TID 0000.0001)                 2.070751892245589E+04,      /* I =  2 */
(PID.TID 0000.0001)                 2.069992855779408E+04,      /* I =  3 */
(PID.TID 0000.0001)      . . .
(PID.TID 0000.0001)                 3.834415825124906E+04,      /* I = 88 */
(PID.TID 0000.0001)                 3.834415825124936E+04,      /* I = 89 */
(PID.TID 0000.0001)                 3.834415825124942E+04,      /* I = 90 */
(PID.TID 0000.0001)                 3.834415825124911E+04,      /* I = 91 */
(PID.TID 0000.0001)                 3.834415825124960E+04,      /* I = 92 */
(PID.TID 0000.0001)                 3.834415825124936E+04,      /* I = 93 */
(PID.TID 0000.0001)      . . .
(PID.TID 0000.0001)                 6.097585119898054E+04,      /* I =178 */
(PID.TID 0000.0001)                 6.097585119898066E+04,      /* I =179 */
(PID.TID 0000.0001)                 6.097585119898095E+04,      /* I =180 */
(PID.TID 0000.0001)                 6.097585119898035E+04,      /* I =181 */
(PID.TID 0000.0001)                 6.097585119898076E+04,      /* I =182 */
(PID.TID 0000.0001)                 6.097585119898054E+04,      /* I =183 */
(PID.TID 0000.0001)      . . .
(PID.TID 0000.0001)                 8.902811056630903E+04,      /* I =268 */
(PID.TID 0000.0001)                 8.902811056630914E+04,      /* I =269 */
(PID.TID 0000.0001)                 8.902811056630960E+04,      /* I =270 */
(PID.TID 0000.0001)                 8.902811056630872E+04,      /* I =271 */
(PID.TID 0000.0001)                 8.902811056630930E+04,      /* I =272 */
(PID.TID 0000.0001)                 8.902811056630987E+04,      /* I =273 */
(PID.TID 0000.0001)      . . .
(PID.TID 0000.0001)                 1.096583732724100E+05,      /* I =358 */
(PID.TID 0000.0001)                 1.096583732724102E+05,      /* I =359 */
(PID.TID 0000.0001)                 1.096583732724104E+05       /* I =360 */
(PID.TID 0000.0001)     ;
(PID.TID 0000.0001) dxC =  /* dxC(1,:,1,:) ( units: m ) */
(PID.TID 0000.0001)                 2.071567651695695E+04,      /* J =  1 */
(PID.TID 0000.0001)                 2.109563672137949E+04,      /* J =  2 */
(PID.TID 0000.0001)                 2.149002149497106E+04,      /* J =  3 */
(PID.TID 0000.0001)                 2.189882927482529E+04,      /* J =  4 */
(PID.TID 0000.0001)                 2.232205646389843E+04,      /* J =  5 */
(PID.TID 0000.0001)                 2.275969855854128E+04,      /* J =  6 */
(PID.TID 0000.0001)                 2.321175117362029E+04,      /* J =  7 */
(PID.TID 0000.0001)                 2.367821096276529E+04,      /* J =  8 */
(PID.TID 0000.0001)                 2.415907643347346E+04,      /* J =  9 */
(PID.TID 0000.0001)                 2.465434865814045E+04,      /* J = 10 */
(PID.TID 0000.0001)                 2.516403188365780E+04,      /* J = 11 */
(PID.TID 0000.0001)                 2.568813404310613E+04,      /* J = 12 */
(PID.TID 0000.0001)                 2.622666717399572E+04,      /* J = 13 */
(PID.TID 0000.0001)                 2.677964774799169E+04,      /* J = 14 */
(PID.TID 0000.0001)                 2.734709691757753E+04,      /* J = 15 */
(PID.TID 0000.0001)                 2.792904068517491E+04,      /* J = 16 */
(PID.TID 0000.0001)                 2.852551000032625E+04,      /* J = 17 */
(PID.TID 0000.0001)                 2.913654079081990E+04,      /* J = 18 */
(PID.TID 0000.0001)                 2.976217393306023E+04,      /* J = 19 */
(PID.TID 0000.0001)                 3.040245516699173E+04,      /* J = 20 */
(PID.TID 0000.0001)                 3.105743496108396E+04,      /* J = 21 */
(PID.TID 0000.0001)                 3.172716833208323E+04,      /* J = 22 */
(PID.TID 0000.0001)                 3.241171462422546E+04,      /* J = 23 */
(PID.TID 0000.0001)                 3.311113725244482E+04,      /* J = 24 */
(PID.TID 0000.0001)                 3.382550341391024E+04,      /* J = 25 */
(PID.TID 0000.0001)                 3.455488377140061E+04,      /* J = 26 */
(PID.TID 0000.0001)                 3.529935211332738E+04,      /* J = 27 */
(PID.TID 0000.0001)                 3.605898499520765E+04,      /* J = 28 */
(PID.TID 0000.0001)                 3.683386137397906E+04,      /* J = 29 */
(PID.TID 0000.0001)                 3.762406228407349E+04       /* J = 30 */
(PID.TID 0000.0001)     ;
(PID.TID 0000.0001) dyC =  /* dyC(:,1,:,1) ( units: m ) */
(PID.TID 0000.0001)                 3.678277710845771E+04,      /* I =  1 */
(PID.TID 0000.0001)                 3.685438685866048E+04,      /* I =  2 */
(PID.TID 0000.0001)                 3.692002588020908E+04,      /* I =  3 */
(PID.TID 0000.0001)      . . .
(PID.TID 0000.0001)                 4.016744984934984E+04,      /* I = 88 */
(PID.TID 0000.0001)                 4.000120354100877E+04,      /* I = 89 */
(PID.TID 0000.0001)                 3.983368408285045E+04,      /* I = 90 */
(PID.TID 0000.0001)                 3.966506634613617E+04,      /* I = 91 */
(PID.TID 0000.0001)                 3.949553059923408E+04,      /* I = 92 */
(PID.TID 0000.0001)                 3.932526257313867E+04,      /* I = 93 */
(PID.TID 0000.0001)      . . .
(PID.TID 0000.0001)                 5.920166007657812E+04,      /* I =178 */
(PID.TID 0000.0001)                 5.920166007657599E+04,      /* I =179 */
(PID.TID 0000.0001)                 5.920166007657529E+04,      /* I =180 */
(PID.TID 0000.0001)                 5.920166007657599E+04,      /* I =181 */
(PID.TID 0000.0001)                 5.920166007657599E+04,      /* I =182 */
(PID.TID 0000.0001)                 5.920166007657458E+04,      /* I =183 */
(PID.TID 0000.0001)      . . .
(PID.TID 0000.0001)                 8.859884432753419E+04,      /* I =268 */
(PID.TID 0000.0001)                 8.859884432753560E+04,      /* I =269 */
(PID.TID 0000.0001)                 8.859884432753420E+04,      /* I =270 */
(PID.TID 0000.0001)                 8.859884432753558E+04,      /* I =271 */
(PID.TID 0000.0001)                 8.859884432753560E+04,      /* I =272 */
(PID.TID 0000.0001)                 8.859884432753417E+04,      /* I =273 */
(PID.TID 0000.0001)      . . .
(PID.TID 0000.0001)                 1.085363275016688E+05,      /* I =358 */
(PID.TID 0000.0001)                 1.085363275016689E+05,      /* I =359 */
(PID.TID 0000.0001)                 1.085363275016690E+05       /* I =360 */
(PID.TID 0000.0001)     ;
(PID.TID 0000.0001) dyC =  /* dyC(1,:,1,:) ( units: m ) */
(PID.TID 0000.0001)                 3.678277710845771E+04,      /* J =  1 */
(PID.TID 0000.0001)                 3.723168694115569E+04,      /* J =  2 */
(PID.TID 0000.0001)                 3.767901897410101E+04,      /* J =  3 */
(PID.TID 0000.0001)                 3.812467364657602E+04,      /* J =  4 */
(PID.TID 0000.0001)                 3.856855210935249E+04,      /* J =  5 */
(PID.TID 0000.0001)                 3.901055633269680E+04,      /* J =  6 */
(PID.TID 0000.0001)                 3.945058917911859E+04,      /* J =  7 */
(PID.TID 0000.0001)                 3.988855443472220E+04,      /* J =  8 */
(PID.TID 0000.0001)                 4.032435681898361E+04,      /* J =  9 */
(PID.TID 0000.0001)                 4.075790196435841E+04,      /* J = 10 */
(PID.TID 0000.0001)                 4.118909638222960E+04,      /* J = 11 */
(PID.TID 0000.0001)                 4.161784741043697E+04,      /* J = 12 */
(PID.TID 0000.0001)                 4.204406315499045E+04,      /* J = 13 */
(PID.TID 0000.0001)                 4.246765242091182E+04,      /* J = 14 */
(PID.TID 0000.0001)                 4.288852464034393E+04,      /* J = 15 */
(PID.TID 0000.0001)                 4.330658981118225E+04,      /* J = 16 */
(PID.TID 0000.0001)                 4.372175841431943E+04,      /* J = 17 */
(PID.TID 0000.0001)                 4.413394136293020E+04,      /* J = 18 */
(PID.TID 0000.0001)                 4.454304993440304E+04,      /* J = 19 */
(PID.TID 0000.0001)                 4.494899572325061E+04,      /* J = 20 */
(PID.TID 0000.0001)                 4.535169059286820E+04,      /* J = 21 */
(PID.TID 0000.0001)                 4.575104664412256E+04,      /* J = 22 */
(PID.TID 0000.0001)                 4.614697618947234E+04,      /* J = 23 */
(PID.TID 0000.0001)                 4.653939173844085E+04,      /* J = 24 */
(PID.TID 0000.0001)                 4.692820600744408E+04,      /* J = 25 */
(PID.TID 0000.0001)                 4.731333194957835E+04,      /* J = 26 */
(PID.TID 0000.0001)                 4.769468283927006E+04,      /* J = 27 */
(PID.TID 0000.0001)                 4.807217249390641E+04,      /* J = 28 */
(PID.TID 0000.0001)                 4.844571593362943E+04,      /* J = 29 */
(PID.TID 0000.0001)                 4.881523285497380E+04       /* J = 30 */
(PID.TID 0000.0001)     ;
(PID.TID 0000.0001) dxV =  /* dxV(:,1,:,1) ( units: m ) */
(PID.TID 0000.0001)                 2.053110526075532E+04,      /* I =  1 */
(PID.TID 0000.0001)                 2.052326088418283E+04,      /* I =  2 */
(PID.TID 0000.0001)                 2.051595672244828E+04,      /* I =  3 */
(PID.TID 0000.0001)      . . .
(PID.TID 0000.0001)                 3.802493532420766E+04,      /* I = 88 */
(PID.TID 0000.0001)                 3.802493532420760E+04,      /* I = 89 */
(PID.TID 0000.0001)                 3.802493532420767E+04,      /* I = 90 */
(PID.TID 0000.0001)                 3.802493532420724E+04,      /* I = 91 */
(PID.TID 0000.0001)                 3.802493532420773E+04,      /* I = 92 */
(PID.TID 0000.0001)                 3.802493532420784E+04,      /* I = 93 */
(PID.TID 0000.0001)      . . .
(PID.TID 0000.0001)                 6.054232243597854E+04,      /* I =178 */
(PID.TID 0000.0001)                 6.054232243597854E+04,      /* I =179 */
(PID.TID 0000.0001)                 6.054232243597881E+04,      /* I =180 */
(PID.TID 0000.0001)                 6.054232243597820E+04,      /* I =181 */
(PID.TID 0000.0001)                 6.054232243597860E+04,      /* I =182 */
(PID.TID 0000.0001)                 6.054232243597822E+04,      /* I =183 */
(PID.TID 0000.0001)      . . .
(PID.TID 0000.0001)                 8.856156306761477E+04,      /* I =268 */
(PID.TID 0000.0001)                 8.856156306761492E+04,      /* I =269 */
(PID.TID 0000.0001)                 8.856156306761476E+04,      /* I =270 */
(PID.TID 0000.0001)                 8.856156306761461E+04,      /* I =271 */
(PID.TID 0000.0001)                 8.856156306761492E+04,      /* I =272 */
(PID.TID 0000.0001)                 8.856156306761462E+04,      /* I =273 */
(PID.TID 0000.0001)      . . .
(PID.TID 0000.0001)                 1.094986218245334E+05,      /* I =358 */
(PID.TID 0000.0001)                 1.094986218245330E+05,      /* I =359 */
(PID.TID 0000.0001)                 1.094986218245336E+05       /* I =360 */
(PID.TID 0000.0001)     ;
(PID.TID 0000.0001) dxV =  /* dxV(1,:,1,:) ( units: m ) */
(PID.TID 0000.0001)                 2.053110526075532E+04,      /* J =  1 */
(PID.TID 0000.0001)                 2.090385356266093E+04,      /* J =  2 */
(PID.TID 0000.0001)                 2.129102607314009E+04,      /* J =  3 */
(PID.TID 0000.0001)                 2.169262269996662E+04,      /* J =  4 */
(PID.TID 0000.0001)                 2.210864071595607E+04,      /* J =  5 */
(PID.TID 0000.0001)                 2.253907593617405E+04,      /* J =  6 */
(PID.TID 0000.0001)                 2.298392379458377E+04,      /* J =  7 */
(PID.TID 0000.0001)                 2.344318031700113E+04,      /* J =  8 */
(PID.TID 0000.0001)                 2.391684298864163E+04,      /* J =  9 */
(PID.TID 0000.0001)                 2.440491151699962E+04,      /* J = 10 */
(PID.TID 0000.0001)                 2.490738849171163E+04,      /* J = 11 */
(PID.TID 0000.0001)                 2.542427994477456E+04,      /* J = 12 */
(PID.TID 0000.0001)                 2.595559581485789E+04,      /* J = 13 */
(PID.TID 0000.0001)                 2.650135032062733E+04,      /* J = 14 */
(PID.TID 0000.0001)                 2.706156224833991E+04,      /* J = 15 */
(PID.TID 0000.0001)                 2.763625515890197E+04,      /* J = 16 */
(PID.TID 0000.0001)                 2.822545752042790E+04,      /* J = 17 */
(PID.TID 0000.0001)                 2.882920277162976E+04,      /* J = 18 */
(PID.TID 0000.0001)                 2.944752932187136E+04,      /* J = 19 */
(PID.TID 0000.0001)                 3.008048049319959E+04,      /* J = 20 */
(PID.TID 0000.0001)                 3.072810440966728E+04,      /* J = 21 */
(PID.TID 0000.0001)                 3.139045383903842E+04,      /* J = 22 */
(PID.TID 0000.0001)                 3.206758599174654E+04,      /* J = 23 */
(PID.TID 0000.0001)                 3.275956228156967E+04,      /* J = 24 */
(PID.TID 0000.0001)                 3.346644805244220E+04,      /* J = 25 */
(PID.TID 0000.0001)                 3.418831227550044E+04,      /* J = 26 */
(PID.TID 0000.0001)                 3.492522722017510E+04,      /* J = 27 */
(PID.TID 0000.0001)                 3.567726810399632E+04,      /* J = 28 */
(PID.TID 0000.0001)                 3.644451272859776E+04,      /* J = 29 */
(PID.TID 0000.0001)                 3.722704112152557E+04       /* J = 30 */
(PID.TID 0000.0001)     ;
(PID.TID 0000.0001) dyU =  /* dyU(:,1,:,1) ( units: m ) */
(PID.TID 0000.0001)                 3.674473316658630E+04,      /* I =  1 */
(PID.TID 0000.0001)                 3.681932833792822E+04,      /* I =  2 */
(PID.TID 0000.0001)                 3.688795269313092E+04,      /* I =  3 */
(PID.TID 0000.0001)      . . .
(PID.TID 0000.0001)                 4.025004238297205E+04,      /* I = 88 */
(PID.TID 0000.0001)                 4.008449655936272E+04,      /* I = 89 */
(PID.TID 0000.0001)                 3.991759215174560E+04,      /* I = 90 */
(PID.TID 0000.0001)                 3.974950135983057E+04,      /* I = 91 */
(PID.TID 0000.0001)                 3.958040174458963E+04,      /* I = 92 */
(PID.TID 0000.0001)                 3.941047629793049E+04,      /* I = 93 */
(PID.TID 0000.0001)      . . .
(PID.TID 0000.0001)                 5.920166007657739E+04,      /* I =178 */
(PID.TID 0000.0001)                 5.920166007657599E+04,      /* I =179 */
(PID.TID 0000.0001)                 5.920166007657599E+04,      /* I =180 */
(PID.TID 0000.0001)                 5.920166007657739E+04,      /* I =181 */
(PID.TID 0000.0001)                 5.920166007657528E+04,      /* I =182 */
(PID.TID 0000.0001)                 5.920166007657741E+04,      /* I =183 */
(PID.TID 0000.0001)      . . .
(PID.TID 0000.0001)                 8.859884432753420E+04,      /* I =268 */
(PID.TID 0000.0001)                 8.859884432753419E+04,      /* I =269 */
(PID.TID 0000.0001)                 8.859884432753417E+04,      /* I =270 */
(PID.TID 0000.0001)                 8.859884432753560E+04,      /* I =271 */
(PID.TID 0000.0001)                 8.859884432753417E+04,      /* I =272 */
(PID.TID 0000.0001)                 8.859884432753420E+04,      /* I =273 */
(PID.TID 0000.0001)      . . .
(PID.TID 0000.0001)                 1.085363275016690E+05,      /* I =358 */
(PID.TID 0000.0001)                 1.085363275016690E+05,      /* I =359 */
(PID.TID 0000.0001)                 1.085363275016690E+05       /* I =360 */
(PID.TID 0000.0001)     ;
(PID.TID 0000.0001) dyU =  /* dyU(1,:,1,:) ( units: m ) */
(PID.TID 0000.0001)                 3.674473316658630E+04,      /* J =  1 */
(PID.TID 0000.0001)                 3.719361547538896E+04,      /* J =  2 */
(PID.TID 0000.0001)                 3.764089459751266E+04,      /* J =  3 */
(PID.TID 0000.0001)                 3.808646730382765E+04,      /* J =  4 */
(PID.TID 0000.0001)                 3.853023123895088E+04,      /* J =  5 */
(PID.TID 0000.0001)                 3.897208503739593E+04,      /* J =  6 */
(PID.TID 0000.0001)                 3.941192840112046E+04,      /* J =  7 */
(PID.TID 0000.0001)                 3.984966213263487E+04,      /* J =  8 */
(PID.TID 0000.0001)                 4.028518814419441E+04,      /* J =  9 */
(PID.TID 0000.0001)                 4.071840943468107E+04,      /* J = 10 */
(PID.TID 0000.0001)                 4.114923005120406E+04,      /* J = 11 */
(PID.TID 0000.0001)                 4.157755503103340E+04,      /* J = 12 */
(PID.TID 0000.0001)                 4.200329033666767E+04,      /* J = 13 */
(PID.TID 0000.0001)                 4.242634277960793E+04,      /* J = 14 */
(PID.TID 0000.0001)                 4.284661994092684E+04,      /* J = 15 */
(PID.TID 0000.0001)                 4.326403010205203E+04,      /* J = 16 */
(PID.TID 0000.0001)                 4.367848215462093E+04,      /* J = 17 */
(PID.TID 0000.0001)                 4.408988554208750E+04,      /* J = 18 */
(PID.TID 0000.0001)                 4.449815018464295E+04,      /* J = 19 */
(PID.TID 0000.0001)                 4.490318642518511E+04,      /* J = 20 */
(PID.TID 0000.0001)                 4.530490497491705E+04,      /* J = 21 */
(PID.TID 0000.0001)                 4.570321687598708E+04,      /* J = 22 */
(PID.TID 0000.0001)                 4.609803347024994E+04,      /* J = 23 */
(PID.TID 0000.0001)                 4.648926637992392E+04,      /* J = 24 */
(PID.TID 0000.0001)                 4.687682751321772E+04,      /* J = 25 */
(PID.TID 0000.0001)                 4.726062909013533E+04,      /* J = 26 */
(PID.TID 0000.0001)                 4.764058372401170E+04,      /* J = 27 */
(PID.TID 0000.0001)                 4.801660464021451E+04,      /* J = 28 */
(PID.TID 0000.0001)                 4.838860633247659E+04,      /* J = 29 */
(PID.TID 0000.0001)                 4.875650803021456E+04       /* J = 30 */
(PID.TID 0000.0001)     ;
(PID.TID 0000.0001) rA  =  /* rA (:,1,:,1) ( units: m^2 ) */
(PID.TID 0000.0001)                 7.665113621396177E+08,      /* I =  1 */
(PID.TID 0000.0001)                 7.677029697239892E+08,      /* I =  2 */
(PID.TID 0000.0001)                 7.687913877455838E+08,      /* I =  3 */
(PID.TID 0000.0001)      . . .
(PID.TID 0000.0001)                 1.498235319581657E+09,      /* I = 88 */
(PID.TID 0000.0001)                 1.498235325942633E+09,      /* I = 89 */
(PID.TID 0000.0001)                 1.498235320635813E+09,      /* I = 90 */
(PID.TID 0000.0001)                 1.498235322789175E+09,      /* I = 91 */
(PID.TID 0000.0001)                 1.498235319401459E+09,      /* I = 92 */
(PID.TID 0000.0001)                 1.498235319653736E+09,      /* I = 93 */
(PID.TID 0000.0001)      . . .
(PID.TID 0000.0001)                 3.624512078340713E+09,      /* I =178 */
(PID.TID 0000.0001)                 3.624512077764081E+09,      /* I =179 */
(PID.TID 0000.0001)                 3.624512075574679E+09,      /* I =180 */
(PID.TID 0000.0001)                 3.624512080052590E+09,      /* I =181 */
(PID.TID 0000.0001)                 3.624512078737147E+09,      /* I =182 */
(PID.TID 0000.0001)                 3.624512079268730E+09,      /* I =183 */
(PID.TID 0000.0001)      . . .
(PID.TID 0000.0001)                 7.931466237949184E+09,      /* I =268 */
(PID.TID 0000.0001)                 7.931466236804928E+09,      /* I =269 */
(PID.TID 0000.0001)                 7.931466238174430E+09,      /* I =270 */
(PID.TID 0000.0001)                 7.931466240246703E+09,      /* I =271 */
(PID.TID 0000.0001)                 7.931466239210566E+09,      /* I =272 */
(PID.TID 0000.0001)                 7.931466238300569E+09,      /* I =273 */
(PID.TID 0000.0001)      . . .
(PID.TID 0000.0001)                 1.185235910535067E+10,      /* I =358 */
(PID.TID 0000.0001)                 1.185235910551286E+10,      /* I =359 */
(PID.TID 0000.0001)                 1.185235910706255E+10       /* I =360 */
(PID.TID 0000.0001)     ;
(PID.TID 0000.0001) rA  =  /* rA (1,:,1,:) ( units: m^2 ) */
(PID.TID 0000.0001)                 7.665113621396177E+08,      /* J =  1 */
(PID.TID 0000.0001)                 7.900134359449342E+08,      /* J =  2 */
(PID.TID 0000.0001)                 8.143679155417176E+08,      /* J =  3 */
(PID.TID 0000.0001)                 8.395900636155584E+08,      /* J =  4 */
(PID.TID 0000.0001)                 8.656947784023314E+08,      /* J =  5 */
(PID.TID 0000.0001)                 8.926966010402582E+08,      /* J =  6 */
(PID.TID 0000.0001)                 9.206097737377057E+08,      /* J =  7 */
(PID.TID 0000.0001)                 9.494482582794807E+08,      /* J =  8 */
(PID.TID 0000.0001)                 9.792257431806778E+08,      /* J =  9 */
(PID.TID 0000.0001)                 1.009955679131553E+09,      /* J = 10 */
(PID.TID 0000.0001)                 1.041651296044221E+09,      /* J = 11 */
(PID.TID 0000.0001)                 1.074325614369065E+09,      /* J = 12 */
(PID.TID 0000.0001)                 1.107991467925779E+09,      /* J = 13 */
(PID.TID 0000.0001)                 1.142661498173082E+09,      /* J = 14 */
(PID.TID 0000.0001)                 1.178348167164929E+09,      /* J = 15 */
(PID.TID 0000.0001)                 1.215063762235644E+09,      /* J = 16 */
(PID.TID 0000.0001)                 1.252820414073754E+09,      /* J = 17 */
(PID.TID 0000.0001)                 1.291630043617734E+09,      /* J = 18 */
(PID.TID 0000.0001)                 1.331504416619858E+09,      /* J = 19 */
(PID.TID 0000.0001)                 1.372455096362339E+09,      /* J = 20 */
(PID.TID 0000.0001)                 1.414493440828222E+09,      /* J = 21 */
(PID.TID 0000.0001)                 1.457630613639386E+09,      /* J = 22 */
(PID.TID 0000.0001)                 1.501877517761831E+09,      /* J = 23 */
(PID.TID 0000.0001)                 1.547244834049951E+09,      /* J = 24 */
(PID.TID 0000.0001)                 1.593742963439136E+09,      /* J = 25 */
(PID.TID 0000.0001)                 1.641382020566774E+09,      /* J = 26 */
(PID.TID 0000.0001)                 1.690171807481416E+09,      /* J = 27 */
(PID.TID 0000.0001)                 1.740121820832662E+09,      /* J = 28 */
(PID.TID 0000.0001)                 1.791241246411172E+09,      /* J = 29 */
(PID.TID 0000.0001)                 1.843539059771026E+09       /* J = 30 */
(PID.TID 0000.0001)     ;
(PID.TID 0000.0001) rAw =  /* rAw(:,1,:,1) ( units: m^2 ) */
(PID.TID 0000.0001)                 7.658765213139513E+08,      /* I =  1 */
(PID.TID 0000.0001)                 7.671201328724998E+08,      /* I =  2 */
(PID.TID 0000.0001)                 7.682600121490355E+08,      /* I =  3 */
(PID.TID 0000.0001)      . . .
(PID.TID 0000.0001)                 1.498235320077200E+09,      /* I = 88 */
(PID.TID 0000.0001)                 1.498235324374914E+09,      /* I = 89 */
(PID.TID 0000.0001)                 1.498235322554918E+09,      /* I = 90 */
(PID.TID 0000.0001)                 1.498235320032151E+09,      /* I = 91 */
(PID.TID 0000.0001)                 1.498235322870264E+09,      /* I = 92 */
(PID.TID 0000.0001)                 1.498235320455615E+09,      /* I = 93 */
(PID.TID 0000.0001)      . . .
(PID.TID 0000.0001)                 3.624512080512094E+09,      /* I =178 */
(PID.TID 0000.0001)                 3.624512075673789E+09,      /* I =179 */
(PID.TID 0000.0001)                 3.624512076872102E+09,      /* I =180 */
(PID.TID 0000.0001)                 3.624512078809227E+09,      /* I =181 */
(PID.TID 0000.0001)                 3.624512078349722E+09,      /* I =182 */
(PID.TID 0000.0001)                 3.624512079539027E+09,      /* I =183 */
(PID.TID 0000.0001)      . . .
(PID.TID 0000.0001)                 7.931466237444630E+09,      /* I =268 */
(PID.TID 0000.0001)                 7.931466237714928E+09,      /* I =269 */
(PID.TID 0000.0001)                 7.931466237399580E+09,      /* I =270 */
(PID.TID 0000.0001)                 7.931466240381851E+09,      /* I =271 */
(PID.TID 0000.0001)                 7.931466239210566E+09,      /* I =272 */
(PID.TID 0000.0001)                 7.931466238922249E+09,      /* I =273 */
(PID.TID 0000.0001)      . . .
(PID.TID 0000.0001)                 1.185235910713463E+10,      /* I =358 */
(PID.TID 0000.0001)                 1.185235910491820E+10,      /* I =359 */
(PID.TID 0000.0001)                 1.185235910766622E+10       /* I =360 */
(PID.TID 0000.0001)     ;
(PID.TID 0000.0001) rAw =  /* rAw(1,:,1,:) ( units: m^2 ) */
(PID.TID 0000.0001)                 7.658765213139513E+08,      /* J =  1 */
(PID.TID 0000.0001)                 7.893768970448780E+08,      /* J =  2 */
(PID.TID 0000.0001)                 8.137283914516071E+08,      /* J =  3 */
(PID.TID 0000.0001)                 8.389460603348250E+08,      /* J =  4 */
(PID.TID 0000.0001)                 8.650445848102766E+08,      /* J =  5 */
(PID.TID 0000.0001)                 8.920382782103341E+08,      /* J =  6 */
(PID.TID 0000.0001)                 9.199411445401106E+08,      /* J =  7 */
(PID.TID 0000.0001)                 9.487668893433769E+08,      /* J =  8 */
(PID.TID 0000.0001)                 9.785289545527842E+08,      /* J =  9 */
(PID.TID 0000.0001)                 1.009240515336406E+09,      /* J = 10 */
(PID.TID 0000.0001)                 1.040914522930714E+09,      /* J = 11 */
(PID.TID 0000.0001)                 1.073563715488477E+09,      /* J = 12 */
(PID.TID 0000.0001)                 1.107200612276400E+09,      /* J = 13 */
(PID.TID 0000.0001)                 1.141837554111466E+09,      /* J = 14 */
(PID.TID 0000.0001)                 1.177486672294872E+09,      /* J = 15 */
(PID.TID 0000.0001)                 1.214159933192917E+09,      /* J = 16 */
(PID.TID 0000.0001)                 1.251869095602249E+09,      /* J = 17 */
(PID.TID 0000.0001)                 1.290625742284441E+09,      /* J = 18 */
(PID.TID 0000.0001)                 1.330441258846839E+09,      /* J = 19 */
(PID.TID 0000.0001)                 1.371326820624166E+09,      /* J = 20 */
(PID.TID 0000.0001)                 1.413293399742275E+09,      /* J = 21 */
(PID.TID 0000.0001)                 1.456351737475827E+09,      /* J = 22 */
(PID.TID 0000.0001)                 1.500512320083793E+09,      /* J = 23 */
(PID.TID 0000.0001)                 1.545785394792978E+09,      /* J = 24 */
(PID.TID 0000.0001)                 1.592180902277974E+09,      /* J = 25 */
(PID.TID 0000.0001)                 1.639708504465653E+09,      /* J = 26 */
(PID.TID 0000.0001)                 1.688377519501836E+09,      /* J = 27 */
(PID.TID 0000.0001)                 1.738196956421325E+09,      /* J = 28 */
(PID.TID 0000.0001)                 1.789175499722981E+09,      /* J = 29 */
(PID.TID 0000.0001)                 1.841321602441802E+09       /* J = 30 */
(PID.TID 0000.0001)     ;
(PID.TID 0000.0001) rAs =  /* rAs(:,1,:,1) ( units: m^2 ) */
(PID.TID 0000.0001)                 7.550751050606852E+08,      /* I =  1 */
(PID.TID 0000.0001)                 7.562658447772087E+08,      /* I =  2 */
(PID.TID 0000.0001)                 7.573533970032284E+08,      /* I =  3 */
(PID.TID 0000.0001)      . . .
(PID.TID 0000.0001)                 1.526961511751005E+09,      /* I = 88 */
(PID.TID 0000.0001)                 1.520696144655040E+09,      /* I = 89 */
(PID.TID 0000.0001)                 1.514382342777465E+09,      /* I = 90 */
(PID.TID 0000.0001)                 1.508026691630045E+09,      /* I = 91 */
(PID.TID 0000.0001)                 1.501635975113130E+09,      /* I = 92 */
(PID.TID 0000.0001)                 1.495217194535514E+09,      /* I = 93 */
(PID.TID 0000.0001)      . . .
(PID.TID 0000.0001)                 3.584244955548074E+09,      /* I =178 */
(PID.TID 0000.0001)                 3.584244957611338E+09,      /* I =179 */
(PID.TID 0000.0001)                 3.584244955890450E+09,      /* I =180 */
(PID.TID 0000.0001)                 3.584244958971829E+09,      /* I =181 */
(PID.TID 0000.0001)                 3.584244957007675E+09,      /* I =182 */
(PID.TID 0000.0001)                 3.584244958323118E+09,      /* I =183 */
(PID.TID 0000.0001)      . . .
(PID.TID 0000.0001)                 7.846503780634002E+09,      /* I =268 */
(PID.TID 0000.0001)                 7.846503778886086E+09,      /* I =269 */
(PID.TID 0000.0001)                 7.846503777786879E+09,      /* I =270 */
(PID.TID 0000.0001)                 7.846503780895288E+09,      /* I =271 */
(PID.TID 0000.0001)                 7.846503780958357E+09,      /* I =272 */
(PID.TID 0000.0001)                 7.846503777858959E+09,      /* I =273 */
(PID.TID 0000.0001)      . . .
(PID.TID 0000.0001)                 1.188440584826531E+10,      /* I =358 */
(PID.TID 0000.0001)                 1.188440585079709E+10,      /* I =359 */
(PID.TID 0000.0001)                 1.188440584834640E+10       /* I =360 */
(PID.TID 0000.0001)     ;
(PID.TID 0000.0001) rAs =  /* rAs(1,:,1,:) ( units: m^2 ) */
(PID.TID 0000.0001)                 7.550751050606852E+08,      /* J =  1 */
(PID.TID 0000.0001)                 7.781568160584769E+08,      /* J =  2 */
(PID.TID 0000.0001)                 8.020831616625657E+08,      /* J =  3 */
(PID.TID 0000.0001)                 8.268695937660589E+08,      /* J =  4 */
(PID.TID 0000.0001)                 8.525311818286231E+08,      /* J =  5 */
(PID.TID 0000.0001)                 8.790826547724357E+08,      /* J =  6 */
(PID.TID 0000.0001)                 9.065383887828039E+08,      /* J =  7 */
(PID.TID 0000.0001)                 9.349124897125442E+08,      /* J =  8 */
(PID.TID 0000.0001)                 9.642187819277472E+08,      /* J =  9 */
(PID.TID 0000.0001)                 9.944708240750725E+08,      /* J = 10 */
(PID.TID 0000.0001)                 1.025681954725808E+09,      /* J = 11 */
(PID.TID 0000.0001)                 1.057865313008499E+09,      /* J = 12 */
(PID.TID 0000.0001)                 1.091033805921100E+09,      /* J = 13 */
(PID.TID 0000.0001)                 1.125200178247652E+09,      /* J = 14 */
(PID.TID 0000.0001)                 1.160376979600140E+09,      /* J = 15 */
(PID.TID 0000.0001)                 1.196576586510721E+09,      /* J = 16 */
(PID.TID 0000.0001)                 1.233811208089928E+09,      /* J = 17 */
(PID.TID 0000.0001)                 1.272092866313053E+09,      /* J = 18 */
(PID.TID 0000.0001)                 1.311433405822894E+09,      /* J = 19 */
(PID.TID 0000.0001)                 1.351844507714875E+09,      /* J = 20 */
(PID.TID 0000.0001)                 1.393337606051485E+09,      /* J = 21 */
(PID.TID 0000.0001)                 1.435923987908001E+09,      /* J = 22 */
(PID.TID 0000.0001)                 1.479614675036705E+09,      /* J = 23 */
(PID.TID 0000.0001)                 1.524420466465598E+09,      /* J = 24 */
(PID.TID 0000.0001)                 1.570351910729954E+09,      /* J = 25 */
(PID.TID 0000.0001)                 1.617419255741331E+09,      /* J = 26 */
(PID.TID 0000.0001)                 1.665632470339211E+09,      /* J = 27 */
(PID.TID 0000.0001)                 1.715001205152071E+09,      /* J = 28 */
(PID.TID 0000.0001)                 1.765534790867491E+09,      /* J = 29 */
(PID.TID 0000.0001)                 1.817242347954489E+09       /* J = 30 */
(PID.TID 0000.0001)     ;
(PID.TID 0000.0001) globalArea = /* Integrated horizontal Area (m^2) */
(PID.TID 0000.0001)                 3.580138611494435E+14
(PID.TID 0000.0001)     ;
(PID.TID 0000.0001) hasWetCSCorners = /* Domain contains CS corners (True/False) */
(PID.TID 0000.0001)                   F
(PID.TID 0000.0001)     ;
(PID.TID 0000.0001) // =======================================================
(PID.TID 0000.0001) // End of Model config. summary
(PID.TID 0000.0001) // =======================================================
(PID.TID 0000.0001) 
(PID.TID 0000.0001) == Packages configuration : Check & print summary ==
(PID.TID 0000.0001) 
(PID.TID 0000.0001) GGL90_CHECK: #define ALLOW_GGL90
(PID.TID 0000.0001) GGL90_CHECK: Some form of convection has been enabled
(PID.TID 0000.0001) GMREDI_CHECK: #define GMREDI
(PID.TID 0000.0001) GM_AdvForm =     /* if FALSE => use SkewFlux Form */
(PID.TID 0000.0001)                   T
(PID.TID 0000.0001)     ;
(PID.TID 0000.0001) GM_InMomAsStress = /* if TRUE => apply as Eddy Stress */
(PID.TID 0000.0001)                   F
(PID.TID 0000.0001)     ;
(PID.TID 0000.0001) GM_AdvSeparate = /* Calc Bolus & Euler Adv. separately */
(PID.TID 0000.0001)                   F
(PID.TID 0000.0001)     ;
(PID.TID 0000.0001) GM_ExtraDiag =   /* Tensor Extra Diag (line 1&2) non 0 */
(PID.TID 0000.0001)                   T
(PID.TID 0000.0001)     ;
(PID.TID 0000.0001) GM_isopycK =    /* Background Isopyc. Diffusivity [m^2/s] */
(PID.TID 0000.0001)                 1.000000000000000E+03
(PID.TID 0000.0001)     ;
(PID.TID 0000.0001) GM_skewflx*K =  /* Background GM_SkewFlx Diffusivity [m^2/s] */
(PID.TID 0000.0001)                 0.000000000000000E+00
(PID.TID 0000.0001)     ;
(PID.TID 0000.0001) GM_advec*K =    /* Backg. GM-Advec(=Bolus) Diffusivity [m^2/s]*/
(PID.TID 0000.0001)                 1.000000000000000E+03
(PID.TID 0000.0001)     ;
(PID.TID 0000.0001) GM_Kmin_horiz = /* Minimum Horizontal Diffusivity [m^2/s] */
(PID.TID 0000.0001)                 1.000000000000000E+02
(PID.TID 0000.0001)     ;
(PID.TID 0000.0001) GM_Visbeck_alpha = /* Visbeck alpha coeff. [-] */
(PID.TID 0000.0001)                 0.000000000000000E+00
(PID.TID 0000.0001)     ;
(PID.TID 0000.0001) GM_Small_Number =  /* epsilon used in slope calc */
(PID.TID 0000.0001)                 9.999999999999999E-21
(PID.TID 0000.0001)     ;
(PID.TID 0000.0001) GM_slopeSqCutoff = /* Slope^2 cut-off value */
(PID.TID 0000.0001)                 1.000000000000000E+08
(PID.TID 0000.0001)     ;
(PID.TID 0000.0001) GM_taper_scheme =  /* Type of Tapering/Clipping scheme */
(PID.TID 0000.0001)               'gkw91                                   '
(PID.TID 0000.0001)     ;
(PID.TID 0000.0001) GM_maxSlope =  /* Maximum Slope (Tapering/Clipping) */
(PID.TID 0000.0001)                 4.000000000000000E-03
(PID.TID 0000.0001)     ;
(PID.TID 0000.0001) GM_facTrL2dz = /* Minimum Trans.Layer Thick. (factor of dz) */
(PID.TID 0000.0001)                 1.000000000000000E+00
(PID.TID 0000.0001)     ;
(PID.TID 0000.0001) GM_facTrL2ML = /* Max.Trans.Layer Thick. (factor of MxL Depth)*/
(PID.TID 0000.0001)                 5.000000000000000E+00
(PID.TID 0000.0001)     ;
(PID.TID 0000.0001) GM_maxTransLay = /* Maximum Transition Layer Thickness [m] */
(PID.TID 0000.0001)                 5.000000000000000E+02
(PID.TID 0000.0001)     ;
(PID.TID 0000.0001) GM_UseBVP = /* if TRUE => use bvp a la Ferrari et al. (2010) */
(PID.TID 0000.0001)                   F
(PID.TID 0000.0001)     ;
(PID.TID 0000.0001) GM_BVP_ModeNumber = /* Vertical mode number for BVP wave speed */
(PID.TID 0000.0001)                       1
(PID.TID 0000.0001)     ;
(PID.TID 0000.0001) GM_BVP_cMin = /* Minimum wave speed for BVP [m/s] */
(PID.TID 0000.0001)                 1.000000000000000E-01
(PID.TID 0000.0001)     ;
(PID.TID 0000.0001) GM_useSubMeso = /* if TRUE => use Sub-Meso param. (B.Fox-Kemper) */
(PID.TID 0000.0001)                   F
(PID.TID 0000.0001)     ;
(PID.TID 0000.0001) subMeso_Ceff = /* efficiency coeff. of Mixed-Layer Eddies [-] */
(PID.TID 0000.0001)                 7.000000000000001E-02
(PID.TID 0000.0001)     ;
(PID.TID 0000.0001) subMeso_invTau = /* inverse of Sub-Meso mixing time-scale [/s] */
(PID.TID 0000.0001)                 2.000000000000000E-06
(PID.TID 0000.0001)     ;
(PID.TID 0000.0001) subMeso_LfMin = /* minimum length-scale "Lf" [m] */
(PID.TID 0000.0001)                 1.000000000000000E+03
(PID.TID 0000.0001)     ;
(PID.TID 0000.0001) subMeso_Lmax = /* maximum grid-scale length [m] */
(PID.TID 0000.0001)                 1.100000000000000E+05
(PID.TID 0000.0001)     ;
(PID.TID 0000.0001) GM_useLeithQG = /* if TRUE => add QG Leith viscosity to GMRedi tensor */
(PID.TID 0000.0001)                   F
(PID.TID 0000.0001)     ;
(PID.TID 0000.0001) EXF_CHECK: #define ALLOW_EXF
(PID.TID 0000.0001) SEAICE_CHECK: #define ALLOW_SEAICE
(PID.TID 0000.0001) SALT_PLUME_CHECK: #define SALT_PLUME
(PID.TID 0000.0001) CTRL_CHECK:  --> Starts to check CTRL set-up
(PID.TID 0000.0001) CTRL_CHECK:  <-- Ends Normally
(PID.TID 0000.0001) 
(PID.TID 0000.0001) COST_CHECK: #define ALLOW_COST
(PID.TID 0000.0001) etaday defined by gencost   0
(PID.TID 0000.0001) GAD_CHECK: #define ALLOW_GENERIC_ADVDIFF
(PID.TID 0000.0001) // =======================================================
(PID.TID 0000.0001) // Check Model config. (CONFIG_CHECK):
(PID.TID 0000.0001) // CONFIG_CHECK : Normal End
(PID.TID 0000.0001) // =======================================================
(PID.TID 0000.0001) 
(PID.TID 0000.0001) Start initial hydrostatic pressure computation
(PID.TID 0000.0001) Pressure is predetermined for buoyancyRelation OCEANIC
(PID.TID 0000.0001) 
(PID.TID 0000.0001) // =======================================================
(PID.TID 0000.0001) // Model current state
(PID.TID 0000.0001) // =======================================================
(PID.TID 0000.0001) 
(PID.TID 0000.0001) // =======================================================
(PID.TID 0000.0001) // Begin MONITOR dynamic field statistics
(PID.TID 0000.0001) // =======================================================
(PID.TID 0000.0001) %MON time_tsnumber                =                     0
(PID.TID 0000.0001) %MON time_secondsf                =   0.0000000000000E+00
(PID.TID 0000.0001) %MON dynstat_eta_max              =   0.0000000000000E+00
(PID.TID 0000.0001) %MON dynstat_eta_min              =   0.0000000000000E+00
(PID.TID 0000.0001) %MON dynstat_eta_mean             =   0.0000000000000E+00
(PID.TID 0000.0001) %MON dynstat_eta_sd               =   0.0000000000000E+00
(PID.TID 0000.0001) %MON dynstat_eta_del2             =   0.0000000000000E+00
(PID.TID 0000.0001) %MON dynstat_uvel_max             =   0.0000000000000E+00
(PID.TID 0000.0001) %MON dynstat_uvel_min             =   0.0000000000000E+00
(PID.TID 0000.0001) %MON dynstat_uvel_mean            =   0.0000000000000E+00
(PID.TID 0000.0001) %MON dynstat_uvel_sd              =   0.0000000000000E+00
(PID.TID 0000.0001) %MON dynstat_uvel_del2            =   0.0000000000000E+00
(PID.TID 0000.0001) %MON dynstat_vvel_max             =   0.0000000000000E+00
(PID.TID 0000.0001) %MON dynstat_vvel_min             =   0.0000000000000E+00
(PID.TID 0000.0001) %MON dynstat_vvel_mean            =   0.0000000000000E+00
(PID.TID 0000.0001) %MON dynstat_vvel_sd              =   0.0000000000000E+00
(PID.TID 0000.0001) %MON dynstat_vvel_del2            =   0.0000000000000E+00
(PID.TID 0000.0001) %MON dynstat_wvel_max             =   0.0000000000000E+00
(PID.TID 0000.0001) %MON dynstat_wvel_min             =   0.0000000000000E+00
(PID.TID 0000.0001) %MON dynstat_wvel_mean            =   0.0000000000000E+00
(PID.TID 0000.0001) %MON dynstat_wvel_sd              =   0.0000000000000E+00
(PID.TID 0000.0001) %MON dynstat_wvel_del2            =   0.0000000000000E+00
(PID.TID 0000.0001) %MON dynstat_theta_max            =   3.1245586395264E+01
(PID.TID 0000.0001) %MON dynstat_theta_min            =  -2.1013226509094E+00
(PID.TID 0000.0001) %MON dynstat_theta_mean           =   3.5920604775043E+00
(PID.TID 0000.0001) %MON dynstat_theta_sd             =   4.4366275815196E+00
(PID.TID 0000.0001) %MON dynstat_theta_del2           =   8.3298059597107E-05
(PID.TID 0000.0001) %MON dynstat_salt_max             =   4.0703685760498E+01
(PID.TID 0000.0001) %MON dynstat_salt_min             =   2.0252157211304E+01
(PID.TID 0000.0001) %MON dynstat_salt_mean            =   3.4725612744119E+01
(PID.TID 0000.0001) %MON dynstat_salt_sd              =   3.8184052247172E-01
(PID.TID 0000.0001) %MON dynstat_salt_del2            =   2.2660272960216E-05
(PID.TID 0000.0001) %MON forcing_qnet_max             =   0.0000000000000E+00
(PID.TID 0000.0001) %MON forcing_qnet_min             =   0.0000000000000E+00
(PID.TID 0000.0001) %MON forcing_qnet_mean            =   0.0000000000000E+00
(PID.TID 0000.0001) %MON forcing_qnet_sd              =   0.0000000000000E+00
(PID.TID 0000.0001) %MON forcing_qnet_del2            =   0.0000000000000E+00
(PID.TID 0000.0001) %MON forcing_qsw_max              =   0.0000000000000E+00
(PID.TID 0000.0001) %MON forcing_qsw_min              =   0.0000000000000E+00
(PID.TID 0000.0001) %MON forcing_qsw_mean             =   0.0000000000000E+00
(PID.TID 0000.0001) %MON forcing_qsw_sd               =   0.0000000000000E+00
(PID.TID 0000.0001) %MON forcing_qsw_del2             =   0.0000000000000E+00
(PID.TID 0000.0001) %MON forcing_empmr_max            =   0.0000000000000E+00
(PID.TID 0000.0001) %MON forcing_empmr_min            =   0.0000000000000E+00
(PID.TID 0000.0001) %MON forcing_empmr_mean           =   0.0000000000000E+00
(PID.TID 0000.0001) %MON forcing_empmr_sd             =   0.0000000000000E+00
(PID.TID 0000.0001) %MON forcing_empmr_del2           =   0.0000000000000E+00
(PID.TID 0000.0001) %MON forcing_fu_max               =   0.0000000000000E+00
(PID.TID 0000.0001) %MON forcing_fu_min               =   0.0000000000000E+00
(PID.TID 0000.0001) %MON forcing_fu_mean              =   0.0000000000000E+00
(PID.TID 0000.0001) %MON forcing_fu_sd                =   0.0000000000000E+00
(PID.TID 0000.0001) %MON forcing_fu_del2              =   0.0000000000000E+00
(PID.TID 0000.0001) %MON forcing_fv_max               =   0.0000000000000E+00
(PID.TID 0000.0001) %MON forcing_fv_min               =   0.0000000000000E+00
(PID.TID 0000.0001) %MON forcing_fv_mean              =   0.0000000000000E+00
(PID.TID 0000.0001) %MON forcing_fv_sd                =   0.0000000000000E+00
(PID.TID 0000.0001) %MON forcing_fv_del2              =   0.0000000000000E+00
(PID.TID 0000.0001) %MON trAdv_CFL_u_max              =   0.0000000000000E+00
(PID.TID 0000.0001) %MON trAdv_CFL_v_max              =   0.0000000000000E+00
(PID.TID 0000.0001) %MON trAdv_CFL_w_max              =   0.0000000000000E+00
(PID.TID 0000.0001) %MON advcfl_uvel_max              =   0.0000000000000E+00
(PID.TID 0000.0001) %MON advcfl_vvel_max              =   0.0000000000000E+00
(PID.TID 0000.0001) %MON advcfl_wvel_max              =   0.0000000000000E+00
(PID.TID 0000.0001) %MON advcfl_W_hf_max              =   0.0000000000000E+00
(PID.TID 0000.0001) %MON pe_b_mean                    =   0.0000000000000E+00
(PID.TID 0000.0001) %MON ke_max                       =   0.0000000000000E+00
(PID.TID 0000.0001) %MON ke_mean                      =   0.0000000000000E+00
(PID.TID 0000.0001) %MON ke_vol                       =   1.3349978769393E+18
(PID.TID 0000.0001) %MON vort_r_min                   =   0.0000000000000E+00
(PID.TID 0000.0001) %MON vort_r_max                   =   0.0000000000000E+00
(PID.TID 0000.0001) %MON vort_a_mean                  =  -1.9727864647440E-05
(PID.TID 0000.0001) %MON vort_a_sd                    =   7.4542458072371E-05
(PID.TID 0000.0001) %MON vort_p_mean                  =  -2.1760527755546E-05
(PID.TID 0000.0001) %MON vort_p_sd                    =   9.7245654528830E-05
(PID.TID 0000.0001) %MON surfExpan_theta_mean         =   0.0000000000000E+00
(PID.TID 0000.0001) %MON surfExpan_salt_mean          =   0.0000000000000E+00
(PID.TID 0000.0001) // =======================================================
(PID.TID 0000.0001) // End MONITOR dynamic field statistics
(PID.TID 0000.0001) // =======================================================
(PID.TID 0000.0001) // =======================================================
(PID.TID 0000.0001) // Begin MONITOR SEAICE statistics
(PID.TID 0000.0001) // =======================================================
(PID.TID 0000.0001) %MON seaice_tsnumber              =                     0
(PID.TID 0000.0001) %MON seaice_time_sec              =   0.0000000000000E+00
(PID.TID 0000.0001) %MON seaice_uice_max              =   4.0000000596046E-01
(PID.TID 0000.0001) %MON seaice_uice_min              =  -4.0000000596046E-01
(PID.TID 0000.0001) %MON seaice_uice_mean             =  -6.9319381275746E-03
(PID.TID 0000.0001) %MON seaice_uice_sd               =   1.7991516949179E-01
(PID.TID 0000.0001) %MON seaice_uice_del2             =   1.6958507719857E-04
(PID.TID 0000.0001) %MON seaice_vice_max              =   4.0000000596046E-01
(PID.TID 0000.0001) %MON seaice_vice_min              =  -4.0000000596046E-01
(PID.TID 0000.0001) %MON seaice_vice_mean             =  -1.5169178195391E-02
(PID.TID 0000.0001) %MON seaice_vice_sd               =   1.7898956995241E-01
(PID.TID 0000.0001) %MON seaice_vice_del2             =   1.7401785323894E-04
(PID.TID 0000.0001) %MON seaice_area_max              =   1.0000000000000E+00
(PID.TID 0000.0001) %MON seaice_area_min              =   0.0000000000000E+00
(PID.TID 0000.0001) %MON seaice_area_mean             =   4.5735037763788E-02
(PID.TID 0000.0001) %MON seaice_area_sd               =   1.9586595319823E-01
(PID.TID 0000.0001) %MON seaice_area_del2             =   2.4248314180739E-04
(PID.TID 0000.0001) %MON seaice_heff_max              =   2.8297662734985E+00
(PID.TID 0000.0001) %MON seaice_heff_min              =   0.0000000000000E+00
(PID.TID 0000.0001) %MON seaice_heff_mean             =   4.4903417175631E-02
(PID.TID 0000.0001) %MON seaice_heff_sd               =   2.2610470173259E-01
(PID.TID 0000.0001) %MON seaice_heff_del2             =   1.7586780459874E-04
(PID.TID 0000.0001) %MON seaice_hsnow_max             =   7.8193300962448E-01
(PID.TID 0000.0001) %MON seaice_hsnow_min             =   0.0000000000000E+00
(PID.TID 0000.0001) %MON seaice_hsnow_mean            =   6.5273797663433E-03
(PID.TID 0000.0001) %MON seaice_hsnow_sd              =   3.5306686409586E-02
(PID.TID 0000.0001) %MON seaice_hsnow_del2            =   5.0192903061042E-05
(PID.TID 0000.0001) // =======================================================
(PID.TID 0000.0001) // End MONITOR SEAICE statistics
(PID.TID 0000.0001) // =======================================================
(PID.TID 0000.0001) // =======================================================
(PID.TID 0000.0001) // Begin MONITOR EXF statistics
(PID.TID 0000.0001) // =======================================================
(PID.TID 0000.0001) %MON exf_tsnumber                 =                     0
(PID.TID 0000.0001) %MON exf_time_sec                 =   0.0000000000000E+00
(PID.TID 0000.0001) %MON exf_ustress_max              =   7.8264374300373E-01
(PID.TID 0000.0001) %MON exf_ustress_min              =  -4.5534979523107E-01
(PID.TID 0000.0001) %MON exf_ustress_mean             =   6.4397726899796E-03
(PID.TID 0000.0001) %MON exf_ustress_sd               =   6.2164013714887E-02
(PID.TID 0000.0001) %MON exf_ustress_del2             =   3.2046418766804E-05
(PID.TID 0000.0001) %MON exf_vstress_max              =   4.6400176821877E-01
(PID.TID 0000.0001) %MON exf_vstress_min              =  -5.6087640803359E-01
(PID.TID 0000.0001) %MON exf_vstress_mean             =  -8.7352230935886E-03
(PID.TID 0000.0001) %MON exf_vstress_sd               =   7.1862928231341E-02
(PID.TID 0000.0001) %MON exf_vstress_del2             =   3.3051535802468E-05
(PID.TID 0000.0001) %MON exf_hflux_max                =   1.0431969986169E+03
(PID.TID 0000.0001) %MON exf_hflux_min                =  -2.5782368915293E+02
(PID.TID 0000.0001) %MON exf_hflux_mean               =  -1.4443865545124E+01
(PID.TID 0000.0001) %MON exf_hflux_sd                 =   1.5155205575478E+02
(PID.TID 0000.0001) %MON exf_hflux_del2               =   2.9454843622972E-01
(PID.TID 0000.0001) %MON exf_sflux_max                =   1.8195495328557E-07
(PID.TID 0000.0001) %MON exf_sflux_min                =  -2.1923491548143E-06
(PID.TID 0000.0001) %MON exf_sflux_mean               =  -2.4958018588050E-09
(PID.TID 0000.0001) %MON exf_sflux_sd                 =   4.4861558777546E-08
(PID.TID 0000.0001) %MON exf_sflux_del2               =   5.2862094326893E-11
(PID.TID 0000.0001) %MON exf_uwind_max                =   1.7675369615666E+01
(PID.TID 0000.0001) %MON exf_uwind_min                =  -1.4558631713368E+01
(PID.TID 0000.0001) %MON exf_uwind_mean               =   4.0523200505250E-01
(PID.TID 0000.0001) %MON exf_uwind_sd                 =   4.4287586521919E+00
(PID.TID 0000.0001) %MON exf_uwind_del2               =   6.4508767249318E-03
(PID.TID 0000.0001) %MON exf_vwind_max                =   1.4843538103138E+01
(PID.TID 0000.0001) %MON exf_vwind_min                =  -1.4823235992540E+01
(PID.TID 0000.0001) %MON exf_vwind_mean               =  -6.9210189011361E-01
(PID.TID 0000.0001) %MON exf_vwind_sd                 =   5.0083554360432E+00
(PID.TID 0000.0001) %MON exf_vwind_del2               =   7.0064727281898E-03
(PID.TID 0000.0001) %MON exf_wspeed_max               =   1.9415732480661E+01
(PID.TID 0000.0001) %MON exf_wspeed_min               =   8.8050706272124E-03
(PID.TID 0000.0001) %MON exf_wspeed_mean              =   6.0668914635673E+00
(PID.TID 0000.0001) %MON exf_wspeed_sd                =   2.9212280545380E+00
(PID.TID 0000.0001) %MON exf_wspeed_del2              =   9.4379774432808E-03
(PID.TID 0000.0001) %MON exf_atemp_max                =   3.0329083599471E+02
(PID.TID 0000.0001) %MON exf_atemp_min                =   2.2978461704463E+02
(PID.TID 0000.0001) %MON exf_atemp_mean               =   2.8895976609694E+02
(PID.TID 0000.0001) %MON exf_atemp_sd                 =   1.2365760808573E+01
(PID.TID 0000.0001) %MON exf_atemp_del2               =   2.6806816217608E-02
(PID.TID 0000.0001) %MON exf_aqh_max                  =   2.0239264198158E-02
(PID.TID 0000.0001) %MON exf_aqh_min                  =  -1.7511101527193E-04
(PID.TID 0000.0001) %MON exf_aqh_mean                 =   1.0867287971470E-02
(PID.TID 0000.0001) %MON exf_aqh_sd                   =   5.3201942938728E-03
(PID.TID 0000.0001) %MON exf_aqh_del2                 =   1.4449288098437E-05
(PID.TID 0000.0001) %MON exf_lwflux_max               =   1.5296320313519E+02
(PID.TID 0000.0001) %MON exf_lwflux_min               =   2.0380958200436E+01
(PID.TID 0000.0001) %MON exf_lwflux_mean              =   5.8870311663814E+01
(PID.TID 0000.0001) %MON exf_lwflux_sd                =   1.7701293221950E+01
(PID.TID 0000.0001) %MON exf_lwflux_del2              =   9.4367026261473E-02
(PID.TID 0000.0001) %MON exf_evap_max                 =   2.2561215051851E-07
(PID.TID 0000.0001) %MON exf_evap_min                 =  -3.4564844285821E-08
(PID.TID 0000.0001) %MON exf_evap_mean                =   3.5886081590032E-08
(PID.TID 0000.0001) %MON exf_evap_sd                  =   2.4574291517795E-08
(PID.TID 0000.0001) %MON exf_evap_del2                =   5.4371234777029E-11
(PID.TID 0000.0001) %MON exf_precip_max               =   1.8699715200013E-07
(PID.TID 0000.0001) %MON exf_precip_min               =   3.0161033436645E-10
(PID.TID 0000.0001) %MON exf_precip_mean              =   3.5689609950354E-08
(PID.TID 0000.0001) %MON exf_precip_sd                =   2.9561148877927E-08
(PID.TID 0000.0001) %MON exf_precip_del2              =   6.2650941654752E-11
(PID.TID 0000.0001) %MON exf_swflux_max               =  -0.0000000000000E+00
(PID.TID 0000.0001) %MON exf_swflux_min               =  -3.1870783737789E+02
(PID.TID 0000.0001) %MON exf_swflux_mean              =  -1.8671398424656E+02
(PID.TID 0000.0001) %MON exf_swflux_sd                =   8.0952086124955E+01
(PID.TID 0000.0001) %MON exf_swflux_del2              =   2.8040926835272E-01
(PID.TID 0000.0001) %MON exf_swdown_max               =   3.4122894794207E+02
(PID.TID 0000.0001) %MON exf_swdown_min               =   0.0000000000000E+00
(PID.TID 0000.0001) %MON exf_swdown_mean              =   1.9990790604557E+02
(PID.TID 0000.0001) %MON exf_swdown_sd                =   8.6672469084534E+01
(PID.TID 0000.0001) %MON exf_swdown_del2              =   3.0022405605216E-01
(PID.TID 0000.0001) %MON exf_lwdown_max               =   4.3519619575994E+02
(PID.TID 0000.0001) %MON exf_lwdown_min               =   1.6710658530818E+02
(PID.TID 0000.0001) %MON exf_lwdown_mean              =   3.5381108542008E+02
(PID.TID 0000.0001) %MON exf_lwdown_sd                =   5.7292921662140E+01
(PID.TID 0000.0001) %MON exf_lwdown_del2              =   4.7299354127412E-01
(PID.TID 0000.0001) %MON exf_runoff_max               =   2.0867788020879E-06
(PID.TID 0000.0001) %MON exf_runoff_min               =   0.0000000000000E+00
(PID.TID 0000.0001) %MON exf_runoff_mean              =   2.6922734984831E-09
(PID.TID 0000.0001) %MON exf_runoff_sd                =   2.4470078708522E-08
(PID.TID 0000.0001) %MON exf_runoff_del2              =   2.0295357163095E-11
(PID.TID 0000.0001) %MON exf_climsss_max              =   4.0695935526202E+01
(PID.TID 0000.0001) %MON exf_climsss_min              =   2.0895440132387E+01
(PID.TID 0000.0001) %MON exf_climsss_mean             =   3.4697029043733E+01
(PID.TID 0000.0001) %MON exf_climsss_sd               =   1.1480856868189E+00
(PID.TID 0000.0001) %MON exf_climsss_del2             =   3.2042163352907E-04
(PID.TID 0000.0001) // =======================================================
(PID.TID 0000.0001) // End MONITOR EXF statistics
(PID.TID 0000.0001) // =======================================================
(PID.TID 0000.0001) SOLVE_FOR_PRESSURE: putPmEinXvector =    F
 cg2d: Sum(rhs),rhsMax =  -1.46974556251414E-01  1.33762140836063E+00
(PID.TID 0000.0001)      cg2d_init_res =   1.47822788885375E+01
(PID.TID 0000.0001)      cg2d_iters(min,last) =      -1     141
(PID.TID 0000.0001)      cg2d_last_res =   6.64324167529871E-06
(PID.TID 0000.0001) // =======================================================
(PID.TID 0000.0001) // Begin MONITOR dynamic field statistics
(PID.TID 0000.0001) // =======================================================
(PID.TID 0000.0001) %MON time_tsnumber                =                     1
(PID.TID 0000.0001) %MON time_secondsf                =   3.6000000000000E+03
(PID.TID 0000.0001) %MON dynstat_eta_max              =   6.2829372703665E-01
(PID.TID 0000.0001) %MON dynstat_eta_min              =  -1.5433292678774E+00
(PID.TID 0000.0001) %MON dynstat_eta_mean             =   7.4388393917127E-05
(PID.TID 0000.0001) %MON dynstat_eta_sd               =   1.0510375715059E-01
(PID.TID 0000.0001) %MON dynstat_eta_del2             =   1.6548967052402E-04
(PID.TID 0000.0001) %MON dynstat_uvel_max             =   2.8939058276657E-01
(PID.TID 0000.0001) %MON dynstat_uvel_min             =  -2.7434080363195E-01
(PID.TID 0000.0001) %MON dynstat_uvel_mean            =  -7.9586197773256E-04
(PID.TID 0000.0001) %MON dynstat_uvel_sd              =   6.4841840031702E-03
(PID.TID 0000.0001) %MON dynstat_uvel_del2            =   2.7974143751810E-06
(PID.TID 0000.0001) %MON dynstat_vvel_max             =   2.6461235799442E-01
(PID.TID 0000.0001) %MON dynstat_vvel_min             =  -2.9442147679285E-01
(PID.TID 0000.0001) %MON dynstat_vvel_mean            =   1.2234203840855E-03
(PID.TID 0000.0001) %MON dynstat_vvel_sd              =   6.4134142075025E-03
(PID.TID 0000.0001) %MON dynstat_vvel_del2            =   2.7421707053741E-06
(PID.TID 0000.0001) %MON dynstat_wvel_max             =   1.5209980752150E-03
(PID.TID 0000.0001) %MON dynstat_wvel_min             =  -1.9063740931300E-03
(PID.TID 0000.0001) %MON dynstat_wvel_mean            =  -7.6543358899612E-07
(PID.TID 0000.0001) %MON dynstat_wvel_sd              =   3.6915977063703E-05
(PID.TID 0000.0001) %MON dynstat_wvel_del2            =   4.2630275811541E-08
(PID.TID 0000.0001) %MON dynstat_theta_max            =   3.1236607045720E+01
(PID.TID 0000.0001) %MON dynstat_theta_min            =  -2.1006897524940E+00
(PID.TID 0000.0001) %MON dynstat_theta_mean           =   3.5920460854196E+00
(PID.TID 0000.0001) %MON dynstat_theta_sd             =   4.4366238156159E+00
(PID.TID 0000.0001) %MON dynstat_theta_del2           =   8.3103845549347E-05
(PID.TID 0000.0001) %MON dynstat_salt_max             =   4.0701817293653E+01
(PID.TID 0000.0001) %MON dynstat_salt_min             =   2.0261095994559E+01
(PID.TID 0000.0001) %MON dynstat_salt_mean            =   3.4725611345631E+01
(PID.TID 0000.0001) %MON dynstat_salt_sd              =   3.8183956969534E-01
(PID.TID 0000.0001) %MON dynstat_salt_del2            =   2.2451185877405E-05
(PID.TID 0000.0001) %MON forcing_qnet_max             =   1.3313330664857E+03
(PID.TID 0000.0001) %MON forcing_qnet_min             =  -1.5452465871677E+03
(PID.TID 0000.0001) %MON forcing_qnet_mean            =  -1.8076268830244E+01
(PID.TID 0000.0001) %MON forcing_qnet_sd              =   1.3605376819188E+02
(PID.TID 0000.0001) %MON forcing_qnet_del2            =   2.8058670292529E-01
(PID.TID 0000.0001) %MON forcing_qsw_max              =   0.0000000000000E+00
(PID.TID 0000.0001) %MON forcing_qsw_min              =  -3.1870783737789E+02
(PID.TID 0000.0001) %MON forcing_qsw_mean             =  -1.8402300808847E+02
(PID.TID 0000.0001) %MON forcing_qsw_sd               =   8.1471386423784E+01
(PID.TID 0000.0001) %MON forcing_qsw_del2             =   4.2450883134896E-02
(PID.TID 0000.0001) %MON forcing_empmr_max            =   6.9756623915573E-03
(PID.TID 0000.0001) %MON forcing_empmr_min            =  -3.2343273510193E-03
(PID.TID 0000.0001) %MON forcing_empmr_mean           =  -2.1262682594644E-05
(PID.TID 0000.0001) %MON forcing_empmr_sd             =   1.8740941992249E-04
(PID.TID 0000.0001) %MON forcing_empmr_del2           =   8.5321186221407E-07
(PID.TID 0000.0001) %MON forcing_fu_max               =   7.7487730023156E-01
(PID.TID 0000.0001) %MON forcing_fu_min               =  -5.4638773816961E-01
(PID.TID 0000.0001) %MON forcing_fu_mean              =   6.0896109910114E-03
(PID.TID 0000.0001) %MON forcing_fu_sd                =   6.2707411707449E-02
(PID.TID 0000.0001) %MON forcing_fu_del2              =   4.1151926575027E-05
(PID.TID 0000.0001) %MON forcing_fv_max               =   5.2340168966572E-01
(PID.TID 0000.0001) %MON forcing_fv_min               =  -5.5853743342117E-01
(PID.TID 0000.0001) %MON forcing_fv_mean              =  -8.4376673345424E-03
(PID.TID 0000.0001) %MON forcing_fv_sd                =   7.2200869615651E-02
(PID.TID 0000.0001) %MON forcing_fv_del2              =   3.5389893932617E-05
(PID.TID 0000.0001) %MON trAdv_CFL_u_max              =   5.6773160238546E-02
(PID.TID 0000.0001) %MON trAdv_CFL_v_max              =   6.9591770662818E-02
(PID.TID 0000.0001) %MON trAdv_CFL_w_max              =   1.6987562011557E-01
(PID.TID 0000.0001) %MON advcfl_uvel_max              =   2.4800959956625E-02
(PID.TID 0000.0001) %MON advcfl_vvel_max              =   2.9118682617553E-02
(PID.TID 0000.0001) %MON advcfl_wvel_max              =   1.5979484389632E-01
(PID.TID 0000.0001) %MON advcfl_W_hf_max              =   1.6796866353966E-01
(PID.TID 0000.0001) %MON pe_b_mean                    =  -5.8331876022676E-07
(PID.TID 0000.0001) %MON ke_max                       =   4.5256849637077E-02
(PID.TID 0000.0001) %MON ke_mean                      =   4.1133647715545E-05
(PID.TID 0000.0001) %MON ke_vol                       =   1.3349978769393E+18
(PID.TID 0000.0001) %MON vort_r_min                   =  -7.1264351054633E-06
(PID.TID 0000.0001) %MON vort_r_max                   =   7.4214021006935E-06
(PID.TID 0000.0001) %MON vort_a_mean                  =  -1.9727864647440E-05
(PID.TID 0000.0001) %MON vort_a_sd                    =   7.4542346159734E-05
(PID.TID 0000.0001) %MON vort_p_mean                  =  -2.1760527755546E-05
(PID.TID 0000.0001) %MON vort_p_sd                    =   9.7246696836759E-05
(PID.TID 0000.0001) %MON surfExpan_theta_mean         =   1.9306371519881E-05
(PID.TID 0000.0001) %MON surfExpan_salt_mean          =   8.7145995451258E-07
(PID.TID 0000.0001) // =======================================================
(PID.TID 0000.0001) // End MONITOR dynamic field statistics
(PID.TID 0000.0001) // =======================================================
(PID.TID 0000.0001) // =======================================================
(PID.TID 0000.0001) // Begin MONITOR SEAICE statistics
(PID.TID 0000.0001) // =======================================================
(PID.TID 0000.0001) %MON seaice_tsnumber              =                     1
(PID.TID 0000.0001) %MON seaice_time_sec              =   3.6000000000000E+03
(PID.TID 0000.0001) %MON seaice_uice_max              =   4.0000000000000E-01
(PID.TID 0000.0001) %MON seaice_uice_min              =  -4.0000000000000E-01
(PID.TID 0000.0001) %MON seaice_uice_mean             =   1.0570110298808E-02
(PID.TID 0000.0001) %MON seaice_uice_sd               =   9.8165983174224E-02
(PID.TID 0000.0001) %MON seaice_uice_del2             =   9.8613511173209E-05
(PID.TID 0000.0001) %MON seaice_vice_max              =   4.0000000000000E-01
(PID.TID 0000.0001) %MON seaice_vice_min              =  -4.0000000000000E-01
(PID.TID 0000.0001) %MON seaice_vice_mean             =  -1.0817428885536E-02
(PID.TID 0000.0001) %MON seaice_vice_sd               =   1.1386659357742E-01
(PID.TID 0000.0001) %MON seaice_vice_del2             =   9.7452267429965E-05
(PID.TID 0000.0001) %MON seaice_area_max              =   9.7000000000000E-01
(PID.TID 0000.0001) %MON seaice_area_min              =   0.0000000000000E+00
(PID.TID 0000.0001) %MON seaice_area_mean             =   4.5024523006893E-02
(PID.TID 0000.0001) %MON seaice_area_sd               =   1.9274805379614E-01
(PID.TID 0000.0001) %MON seaice_area_del2             =   2.4404140883233E-04
(PID.TID 0000.0001) %MON seaice_heff_max              =   2.8292510716785E+00
(PID.TID 0000.0001) %MON seaice_heff_min              =   0.0000000000000E+00
(PID.TID 0000.0001) %MON seaice_heff_mean             =   4.4822397791584E-02
(PID.TID 0000.0001) %MON seaice_heff_sd               =   2.2589009742813E-01
(PID.TID 0000.0001) %MON seaice_heff_del2             =   1.7424485925219E-04
(PID.TID 0000.0001) %MON seaice_hsnow_max             =   7.8159637892077E-01
(PID.TID 0000.0001) %MON seaice_hsnow_min             =  -5.4210108624275E-20
(PID.TID 0000.0001) %MON seaice_hsnow_mean            =   6.5188403182895E-03
(PID.TID 0000.0001) %MON seaice_hsnow_sd              =   3.5280276537787E-02
(PID.TID 0000.0001) %MON seaice_hsnow_del2            =   5.0002954544468E-05
(PID.TID 0000.0001) // =======================================================
(PID.TID 0000.0001) // End MONITOR SEAICE statistics
(PID.TID 0000.0001) // =======================================================
(PID.TID 0000.0001) // =======================================================
(PID.TID 0000.0001) // Begin MONITOR EXF statistics
(PID.TID 0000.0001) // =======================================================
(PID.TID 0000.0001) %MON exf_tsnumber                 =                     1
(PID.TID 0000.0001) %MON exf_time_sec                 =   3.6000000000000E+03
(PID.TID 0000.0001) %MON exf_ustress_max              =   8.2706254083762E-01
(PID.TID 0000.0001) %MON exf_ustress_min              =  -5.1622581722300E-01
(PID.TID 0000.0001) %MON exf_ustress_mean             =   6.4769662955845E-03
(PID.TID 0000.0001) %MON exf_ustress_sd               =   6.3794523026032E-02
(PID.TID 0000.0001) %MON exf_ustress_del2             =   3.3301653641519E-05
(PID.TID 0000.0001) %MON exf_vstress_max              =   5.1065588605240E-01
(PID.TID 0000.0001) %MON exf_vstress_min              =  -5.9421075569157E-01
(PID.TID 0000.0001) %MON exf_vstress_mean             =  -7.9254068932876E-03
(PID.TID 0000.0001) %MON exf_vstress_sd               =   7.4037150316359E-02
(PID.TID 0000.0001) %MON exf_vstress_del2             =   3.4802894143487E-05
(PID.TID 0000.0001) %MON exf_hflux_max                =   1.0746167724330E+03
(PID.TID 0000.0001) %MON exf_hflux_min                =  -2.5777890722939E+02
(PID.TID 0000.0001) %MON exf_hflux_mean               =  -1.3631123958081E+01
(PID.TID 0000.0001) %MON exf_hflux_sd                 =   1.5334026135173E+02
(PID.TID 0000.0001) %MON exf_hflux_del2               =   2.9730447943576E-01
(PID.TID 0000.0001) %MON exf_sflux_max                =   1.9596994233695E-07
(PID.TID 0000.0001) %MON exf_sflux_min                =  -2.1935342722974E-06
(PID.TID 0000.0001) %MON exf_sflux_mean               =  -2.3355796074980E-09
(PID.TID 0000.0001) %MON exf_sflux_sd                 =   4.4862331976434E-08
(PID.TID 0000.0001) %MON exf_sflux_del2               =   5.2834256598405E-11
(PID.TID 0000.0001) %MON exf_uwind_max                =   1.7909514465496E+01
(PID.TID 0000.0001) %MON exf_uwind_min                =  -1.5472462207317E+01
(PID.TID 0000.0001) %MON exf_uwind_mean               =   4.0259440308204E-01
(PID.TID 0000.0001) %MON exf_uwind_sd                 =   4.4475897199089E+00
(PID.TID 0000.0001) %MON exf_uwind_del2               =   1.2737916901894E-03
(PID.TID 0000.0001) %MON exf_vwind_max                =   1.5394210466532E+01
(PID.TID 0000.0001) %MON exf_vwind_min                =  -1.5402226298189E+01
(PID.TID 0000.0001) %MON exf_vwind_mean               =  -6.4612481282011E-01
(PID.TID 0000.0001) %MON exf_vwind_sd                 =   5.0531281901155E+00
(PID.TID 0000.0001) %MON exf_vwind_del2               =   1.2375273052589E-03
(PID.TID 0000.0001) %MON exf_wspeed_max               =   1.9913345116305E+01
(PID.TID 0000.0001) %MON exf_wspeed_min               =   1.3333186113199E-02
(PID.TID 0000.0001) %MON exf_wspeed_mean              =   6.0973460047281E+00
(PID.TID 0000.0001) %MON exf_wspeed_sd                =   2.9524718539115E+00
(PID.TID 0000.0001) %MON exf_wspeed_del2              =   9.5472530071891E-03
(PID.TID 0000.0001) %MON exf_atemp_max                =   3.0305008998378E+02
(PID.TID 0000.0001) %MON exf_atemp_min                =   2.2957434364508E+02
(PID.TID 0000.0001) %MON exf_atemp_mean               =   2.8895448463064E+02
(PID.TID 0000.0001) %MON exf_atemp_sd                 =   1.2354790003884E+01
(PID.TID 0000.0001) %MON exf_atemp_del2               =   2.6788143877066E-02
(PID.TID 0000.0001) %MON exf_aqh_max                  =   2.0163247034422E-02
(PID.TID 0000.0001) %MON exf_aqh_min                  =  -1.7397960753081E-04
(PID.TID 0000.0001) %MON exf_aqh_mean                 =   1.0863231607036E-02
(PID.TID 0000.0001) %MON exf_aqh_sd                   =   5.3142124339145E-03
(PID.TID 0000.0001) %MON exf_aqh_del2                 =   1.4449102036184E-05
(PID.TID 0000.0001) %MON exf_lwflux_max               =   1.5226299699938E+02
(PID.TID 0000.0001) %MON exf_lwflux_min               =   2.0761648575119E+01
(PID.TID 0000.0001) %MON exf_lwflux_mean              =   5.8871619657227E+01
(PID.TID 0000.0001) %MON exf_lwflux_sd                =   1.7654519126914E+01
(PID.TID 0000.0001) %MON exf_lwflux_del2              =   9.4333371059563E-02
(PID.TID 0000.0001) %MON exf_evap_max                 =   2.3963031225247E-07
(PID.TID 0000.0001) %MON exf_evap_min                 =  -3.6689805202220E-08
(PID.TID 0000.0001) %MON exf_evap_mean                =   3.6046448222292E-08
(PID.TID 0000.0001) %MON exf_evap_sd                  =   2.4772429668789E-08
(PID.TID 0000.0001) %MON exf_evap_del2                =   5.4722338464021E-11
(PID.TID 0000.0001) %MON exf_precip_max               =   1.8691348354493E-07
(PID.TID 0000.0001) %MON exf_precip_min               =   3.0209653692469E-10
(PID.TID 0000.0001) %MON exf_precip_mean              =   3.5689458656738E-08
(PID.TID 0000.0001) %MON exf_precip_sd                =   2.9552846116334E-08
(PID.TID 0000.0001) %MON exf_precip_del2              =   6.2642290126351E-11
(PID.TID 0000.0001) %MON exf_swflux_max               =  -0.0000000000000E+00
(PID.TID 0000.0001) %MON exf_swflux_min               =  -3.1849455478432E+02
(PID.TID 0000.0001) %MON exf_swflux_mean              =  -1.8672242344898E+02
(PID.TID 0000.0001) %MON exf_swflux_sd                =   8.0927993444204E+01
(PID.TID 0000.0001) %MON exf_swflux_del2              =   2.8039791026386E-01
(PID.TID 0000.0001) %MON exf_swdown_max               =   3.4100059398750E+02
(PID.TID 0000.0001) %MON exf_swdown_min               =   0.0000000000000E+00
(PID.TID 0000.0001) %MON exf_swdown_mean              =   1.9991694159420E+02
(PID.TID 0000.0001) %MON exf_swdown_sd                =   8.6646673923130E+01
(PID.TID 0000.0001) %MON exf_swdown_del2              =   3.0021189535745E-01
(PID.TID 0000.0001) %MON exf_lwdown_max               =   4.3500318119910E+02
(PID.TID 0000.0001) %MON exf_lwdown_min               =   1.6736112299951E+02
(PID.TID 0000.0001) %MON exf_lwdown_mean              =   3.5380878973486E+02
(PID.TID 0000.0001) %MON exf_lwdown_sd                =   5.7277191538874E+01
(PID.TID 0000.0001) %MON exf_lwdown_del2              =   4.7300001741798E-01
(PID.TID 0000.0001) %MON exf_runoff_max               =   2.0881203992726E-06
(PID.TID 0000.0001) %MON exf_runoff_min               =   0.0000000000000E+00
(PID.TID 0000.0001) %MON exf_runoff_mean              =   2.6925691730520E-09
(PID.TID 0000.0001) %MON exf_runoff_sd                =   2.4483521365860E-08
(PID.TID 0000.0001) %MON exf_runoff_del2              =   2.0300635974515E-11
(PID.TID 0000.0001) %MON exf_climsss_max              =   4.0695545893843E+01
(PID.TID 0000.0001) %MON exf_climsss_min              =   2.0895895355491E+01
(PID.TID 0000.0001) %MON exf_climsss_mean             =   3.4697045735304E+01
(PID.TID 0000.0001) %MON exf_climsss_sd               =   1.1480193469877E+00
(PID.TID 0000.0001) %MON exf_climsss_del2             =   3.2043240914217E-04
(PID.TID 0000.0001) // =======================================================
(PID.TID 0000.0001) // End MONITOR EXF statistics
(PID.TID 0000.0001) // =======================================================
 cg2d: Sum(rhs),rhsMax =  -2.89667992072702E-01  1.31165947868857E+00
(PID.TID 0000.0001)      cg2d_init_res =   1.78965985889577E+00
(PID.TID 0000.0001)      cg2d_iters(min,last) =      -1     140
(PID.TID 0000.0001)      cg2d_last_res =   6.32917826052206E-06
(PID.TID 0000.0001) // =======================================================
(PID.TID 0000.0001) // Begin MONITOR dynamic field statistics
(PID.TID 0000.0001) // =======================================================
(PID.TID 0000.0001) %MON time_tsnumber                =                     2
(PID.TID 0000.0001) %MON time_secondsf                =   7.2000000000000E+03
(PID.TID 0000.0001) %MON dynstat_eta_max              =   7.5901944630486E-01
(PID.TID 0000.0001) %MON dynstat_eta_min              =  -2.5234117039476E+00
(PID.TID 0000.0001) %MON dynstat_eta_mean             =   1.5100217402231E-04
(PID.TID 0000.0001) %MON dynstat_eta_sd               =   2.0379286666464E-01
(PID.TID 0000.0001) %MON dynstat_eta_del2             =   1.7433022553217E-04
(PID.TID 0000.0001) %MON dynstat_uvel_max             =   4.5739352778241E-01
(PID.TID 0000.0001) %MON dynstat_uvel_min             =  -3.4879234606579E-01
(PID.TID 0000.0001) %MON dynstat_uvel_mean            =  -2.5728482806794E-03
(PID.TID 0000.0001) %MON dynstat_uvel_sd              =   1.1359397602868E-02
(PID.TID 0000.0001) %MON dynstat_uvel_del2            =   4.4383865005086E-06
(PID.TID 0000.0001) %MON dynstat_vvel_max             =   3.5873393006783E-01
(PID.TID 0000.0001) %MON dynstat_vvel_min             =  -4.5773119177539E-01
(PID.TID 0000.0001) %MON dynstat_vvel_mean            =   8.5461075869997E-04
(PID.TID 0000.0001) %MON dynstat_vvel_sd              =   1.1838093146008E-02
(PID.TID 0000.0001) %MON dynstat_vvel_del2            =   4.2931300081183E-06
(PID.TID 0000.0001) %MON dynstat_wvel_max             =   2.8989891142390E-03
(PID.TID 0000.0001) %MON dynstat_wvel_min             =  -2.3251161206207E-03
(PID.TID 0000.0001) %MON dynstat_wvel_mean            =  -7.4434115624202E-07
(PID.TID 0000.0001) %MON dynstat_wvel_sd              =   6.6213740883918E-05
(PID.TID 0000.0001) %MON dynstat_wvel_del2            =   7.0987533186399E-08
(PID.TID 0000.0001) %MON dynstat_theta_max            =   3.1222710237771E+01
(PID.TID 0000.0001) %MON dynstat_theta_min            =  -2.1002308883004E+00
(PID.TID 0000.0001) %MON dynstat_theta_mean           =   3.5920380579600E+00
(PID.TID 0000.0001) %MON dynstat_theta_sd             =   4.4366232204328E+00
(PID.TID 0000.0001) %MON dynstat_theta_del2           =   8.3007629995277E-05
(PID.TID 0000.0001) %MON dynstat_salt_max             =   4.0699562851827E+01
(PID.TID 0000.0001) %MON dynstat_salt_min             =   2.0288920744280E+01
(PID.TID 0000.0001) %MON dynstat_salt_mean            =   3.4725610141679E+01
(PID.TID 0000.0001) %MON dynstat_salt_sd              =   3.8184137902046E-01
(PID.TID 0000.0001) %MON dynstat_salt_del2            =   2.2201159730884E-05
(PID.TID 0000.0001) %MON forcing_qnet_max             =   1.3210309404514E+03
(PID.TID 0000.0001) %MON forcing_qnet_min             =  -4.8258516668232E+02
(PID.TID 0000.0001) %MON forcing_qnet_mean            =  -1.7380840216567E+01
(PID.TID 0000.0001) %MON forcing_qnet_sd              =   1.3468130040938E+02
(PID.TID 0000.0001) %MON forcing_qnet_del2            =   2.2400097256257E-01
(PID.TID 0000.0001) %MON forcing_qsw_max              =   0.0000000000000E+00
(PID.TID 0000.0001) %MON forcing_qsw_min              =  -3.1849455478432E+02
(PID.TID 0000.0001) %MON forcing_qsw_mean             =  -1.8405072600423E+02
(PID.TID 0000.0001) %MON forcing_qsw_sd               =   8.1429927206917E+01
(PID.TID 0000.0001) %MON forcing_qsw_del2             =   4.2368174899780E-02
(PID.TID 0000.0001) %MON forcing_empmr_max            =   3.7434643757336E-03
(PID.TID 0000.0001) %MON forcing_empmr_min            =  -3.1967878758819E-03
(PID.TID 0000.0001) %MON forcing_empmr_mean           =  -2.1898772146726E-05
(PID.TID 0000.0001) %MON forcing_empmr_sd             =   1.6699772055108E-04
(PID.TID 0000.0001) %MON forcing_empmr_del2           =   6.6780106717714E-07
(PID.TID 0000.0001) %MON forcing_fu_max               =   8.1726352282884E-01
(PID.TID 0000.0001) %MON forcing_fu_min               =  -5.8469188936009E-01
(PID.TID 0000.0001) %MON forcing_fu_mean              =   6.4613886702438E-03
(PID.TID 0000.0001) %MON forcing_fu_sd                =   6.4235683688242E-02
(PID.TID 0000.0001) %MON forcing_fu_del2              =   3.8505584103464E-05
(PID.TID 0000.0001) %MON forcing_fv_max               =   5.7330184281764E-01
(PID.TID 0000.0001) %MON forcing_fv_min               =  -5.8736297951126E-01
(PID.TID 0000.0001) %MON forcing_fv_mean              =  -7.6839437785180E-03
(PID.TID 0000.0001) %MON forcing_fv_sd                =   7.4242282413640E-02
(PID.TID 0000.0001) %MON forcing_fv_del2              =   3.5672440492997E-05
(PID.TID 0000.0001) %MON trAdv_CFL_u_max              =   5.9749621297928E-02
(PID.TID 0000.0001) %MON trAdv_CFL_v_max              =   6.1245862046152E-02
(PID.TID 0000.0001) %MON trAdv_CFL_w_max              =   1.7527346883418E-01
(PID.TID 0000.0001) %MON advcfl_uvel_max              =   2.9961080813059E-02
(PID.TID 0000.0001) %MON advcfl_vvel_max              =   4.2265580949272E-02
(PID.TID 0000.0001) %MON advcfl_wvel_max              =   1.6602409153502E-01
(PID.TID 0000.0001) %MON advcfl_W_hf_max              =   1.7474740302065E-01
(PID.TID 0000.0001) %MON pe_b_mean                    =   2.4691393705763E-05
(PID.TID 0000.0001) %MON ke_max                       =   9.9277088111487E-02
(PID.TID 0000.0001) %MON ke_mean                      =   1.3333733925461E-04
(PID.TID 0000.0001) %MON ke_vol                       =   1.3349979035714E+18
(PID.TID 0000.0001) %MON vort_r_min                   =  -1.0937711709687E-05
(PID.TID 0000.0001) %MON vort_r_max                   =   1.3293128553806E-05
(PID.TID 0000.0001) %MON vort_a_mean                  =  -1.9727864647440E-05
(PID.TID 0000.0001) %MON vort_a_sd                    =   7.4541838292367E-05
(PID.TID 0000.0001) %MON vort_p_mean                  =  -2.1760525964211E-05
(PID.TID 0000.0001) %MON vort_p_sd                    =   9.7243410400831E-05
(PID.TID 0000.0001) %MON surfExpan_theta_mean         =   3.1729597539734E-05
(PID.TID 0000.0001) %MON surfExpan_salt_mean          =   1.4636121022092E-06
(PID.TID 0000.0001) // =======================================================
(PID.TID 0000.0001) // End MONITOR dynamic field statistics
(PID.TID 0000.0001) // =======================================================
(PID.TID 0000.0001) // =======================================================
(PID.TID 0000.0001) // Begin MONITOR SEAICE statistics
(PID.TID 0000.0001) // =======================================================
(PID.TID 0000.0001) %MON seaice_tsnumber              =                     2
(PID.TID 0000.0001) %MON seaice_time_sec              =   7.2000000000000E+03
(PID.TID 0000.0001) %MON seaice_uice_max              =   4.0000000000000E-01
(PID.TID 0000.0001) %MON seaice_uice_min              =  -4.0000000000000E-01
(PID.TID 0000.0001) %MON seaice_uice_mean             =   1.0081950256000E-02
(PID.TID 0000.0001) %MON seaice_uice_sd               =   1.0495522151297E-01
(PID.TID 0000.0001) %MON seaice_uice_del2             =   5.1638703086948E-05
(PID.TID 0000.0001) %MON seaice_vice_max              =   4.0000000000000E-01
(PID.TID 0000.0001) %MON seaice_vice_min              =  -4.0000000000000E-01
(PID.TID 0000.0001) %MON seaice_vice_mean             =  -1.5497208149087E-02
(PID.TID 0000.0001) %MON seaice_vice_sd               =   1.2020282523433E-01
(PID.TID 0000.0001) %MON seaice_vice_del2             =   5.1590442704241E-05
(PID.TID 0000.0001) %MON seaice_area_max              =   9.7000000000000E-01
(PID.TID 0000.0001) %MON seaice_area_min              =   0.0000000000000E+00
(PID.TID 0000.0001) %MON seaice_area_mean             =   4.4920743884332E-02
(PID.TID 0000.0001) %MON seaice_area_sd               =   1.9245970137978E-01
(PID.TID 0000.0001) %MON seaice_area_del2             =   2.4385895877052E-04
(PID.TID 0000.0001) %MON seaice_heff_max              =   2.8287443114189E+00
(PID.TID 0000.0001) %MON seaice_heff_min              =   0.0000000000000E+00
(PID.TID 0000.0001) %MON seaice_heff_mean             =   4.4739078608348E-02
(PID.TID 0000.0001) %MON seaice_heff_sd               =   2.2565692050917E-01
(PID.TID 0000.0001) %MON seaice_heff_del2             =   1.7252438415773E-04
(PID.TID 0000.0001) %MON seaice_hsnow_max             =   7.8126052609271E-01
(PID.TID 0000.0001) %MON seaice_hsnow_min             =  -2.1684043449710E-19
(PID.TID 0000.0001) %MON seaice_hsnow_mean            =   6.5097035819739E-03
(PID.TID 0000.0001) %MON seaice_hsnow_sd              =   3.5249153867990E-02
(PID.TID 0000.0001) %MON seaice_hsnow_del2            =   4.9841255787289E-05
(PID.TID 0000.0001) // =======================================================
(PID.TID 0000.0001) // End MONITOR SEAICE statistics
(PID.TID 0000.0001) // =======================================================
(PID.TID 0000.0001) // =======================================================
(PID.TID 0000.0001) // Begin MONITOR EXF statistics
(PID.TID 0000.0001) // =======================================================
(PID.TID 0000.0001) %MON exf_tsnumber                 =                     2
(PID.TID 0000.0001) %MON exf_time_sec                 =   7.2000000000000E+03
(PID.TID 0000.0001) %MON exf_ustress_max              =   8.7395092657237E-01
(PID.TID 0000.0001) %MON exf_ustress_min              =  -5.8535530089935E-01
(PID.TID 0000.0001) %MON exf_ustress_mean             =   6.5409209925231E-03
(PID.TID 0000.0001) %MON exf_ustress_sd               =   6.6115582142987E-02
(PID.TID 0000.0001) %MON exf_ustress_del2             =   3.5228782843261E-05
(PID.TID 0000.0001) %MON exf_vstress_max              =   5.6070078317531E-01
(PID.TID 0000.0001) %MON exf_vstress_min              =  -6.4232352997070E-01
(PID.TID 0000.0001) %MON exf_vstress_mean             =  -7.0729257342907E-03
(PID.TID 0000.0001) %MON exf_vstress_sd               =   7.7095342930904E-02
(PID.TID 0000.0001) %MON exf_vstress_del2             =   3.7171874388408E-05
(PID.TID 0000.0001) %MON exf_hflux_max                =   1.1058761351411E+03
(PID.TID 0000.0001) %MON exf_hflux_min                =  -2.5770376042287E+02
(PID.TID 0000.0001) %MON exf_hflux_mean               =  -1.2506779430269E+01
(PID.TID 0000.0001) %MON exf_hflux_sd                 =   1.5569779768415E+02
(PID.TID 0000.0001) %MON exf_hflux_del2               =   3.0097863376290E-01
(PID.TID 0000.0001) %MON exf_sflux_max                =   2.1263204911274E-07
(PID.TID 0000.0001) %MON exf_sflux_min                =  -2.1947255065370E-06
(PID.TID 0000.0001) %MON exf_sflux_mean               =  -2.0852240449786E-09
(PID.TID 0000.0001) %MON exf_sflux_sd                 =   4.4932097476532E-08
(PID.TID 0000.0001) %MON exf_sflux_del2               =   5.2834179823525E-11
(PID.TID 0000.0001) %MON exf_uwind_max                =   1.8143659315325E+01
(PID.TID 0000.0001) %MON exf_uwind_min                =  -1.6386292701266E+01
(PID.TID 0000.0001) %MON exf_uwind_mean               =   3.9995680111159E-01
(PID.TID 0000.0001) %MON exf_uwind_sd                 =   4.4816690679754E+00
(PID.TID 0000.0001) %MON exf_uwind_del2               =   1.3184156687799E-03
(PID.TID 0000.0001) %MON exf_vwind_max                =   1.6010494944259E+01
(PID.TID 0000.0001) %MON exf_vwind_min                =  -1.6064215422973E+01
(PID.TID 0000.0001) %MON exf_vwind_mean               =  -6.0014773552662E-01
(PID.TID 0000.0001) %MON exf_vwind_sd                 =   5.1108940372413E+00
(PID.TID 0000.0001) %MON exf_vwind_del2               =   1.2847554301957E-03
(PID.TID 0000.0001) %MON exf_wspeed_max               =   2.0465486664387E+01
(PID.TID 0000.0001) %MON exf_wspeed_min               =   3.5170829912341E-02
(PID.TID 0000.0001) %MON exf_wspeed_mean              =   6.1441285945637E+00
(PID.TID 0000.0001) %MON exf_wspeed_sd                =   2.9960677654943E+00
(PID.TID 0000.0001) %MON exf_wspeed_del2              =   9.6950871458749E-03
(PID.TID 0000.0001) %MON exf_atemp_max                =   3.0311281084196E+02
(PID.TID 0000.0001) %MON exf_atemp_min                =   2.2936407024553E+02
(PID.TID 0000.0001) %MON exf_atemp_mean               =   2.8894920316434E+02
(PID.TID 0000.0001) %MON exf_atemp_sd                 =   1.2345266632657E+01
(PID.TID 0000.0001) %MON exf_atemp_del2               =   2.6774609250458E-02
(PID.TID 0000.0001) %MON exf_aqh_max                  =   2.0151881285279E-02
(PID.TID 0000.0001) %MON exf_aqh_min                  =  -1.7507817434215E-04
(PID.TID 0000.0001) %MON exf_aqh_mean                 =   1.0859175242602E-02
(PID.TID 0000.0001) %MON exf_aqh_sd                   =   5.3091213923571E-03
(PID.TID 0000.0001) %MON exf_aqh_del2                 =   1.4450134252705E-05
(PID.TID 0000.0001) %MON exf_lwflux_max               =   1.5157563660880E+02
(PID.TID 0000.0001) %MON exf_lwflux_min               =   2.0706584532814E+01
(PID.TID 0000.0001) %MON exf_lwflux_mean              =   5.8870052460710E+01
(PID.TID 0000.0001) %MON exf_lwflux_sd                =   1.7619904334611E+01
(PID.TID 0000.0001) %MON exf_lwflux_del2              =   9.4299743497818E-02
(PID.TID 0000.0001) %MON exf_evap_max                 =   2.5629559171084E-07
(PID.TID 0000.0001) %MON exf_evap_min                 =  -3.9581136089418E-08
(PID.TID 0000.0001) %MON exf_evap_mean                =   3.6296948165765E-08
(PID.TID 0000.0001) %MON exf_evap_sd                  =   2.5123038472181E-08
(PID.TID 0000.0001) %MON exf_evap_del2                =   5.5321681145823E-11
(PID.TID 0000.0001) %MON exf_precip_max               =   1.8682981508973E-07
(PID.TID 0000.0001) %MON exf_precip_min               =   3.0258273948293E-10
(PID.TID 0000.0001) %MON exf_precip_mean              =   3.5689307363123E-08
(PID.TID 0000.0001) %MON exf_precip_sd                =   2.9544569927240E-08
(PID.TID 0000.0001) %MON exf_precip_del2              =   6.2633665618658E-11
(PID.TID 0000.0001) %MON exf_swflux_max               =  -0.0000000000000E+00
(PID.TID 0000.0001) %MON exf_swflux_min               =  -3.1828127219075E+02
(PID.TID 0000.0001) %MON exf_swflux_mean              =  -1.8673086265140E+02
(PID.TID 0000.0001) %MON exf_swflux_sd                =   8.0905668229970E+01
(PID.TID 0000.0001) %MON exf_swflux_del2              =   2.8038801762042E-01
(PID.TID 0000.0001) %MON exf_swdown_max               =   3.4077224003293E+02
(PID.TID 0000.0001) %MON exf_swdown_min               =   0.0000000000000E+00
(PID.TID 0000.0001) %MON exf_swdown_mean              =   1.9992597714282E+02
(PID.TID 0000.0001) %MON exf_swdown_sd                =   8.6622771124165E+01
(PID.TID 0000.0001) %MON exf_swdown_del2              =   3.0020130366212E-01
(PID.TID 0000.0001) %MON exf_lwdown_max               =   4.3481016663826E+02
(PID.TID 0000.0001) %MON exf_lwdown_min               =   1.6761566069083E+02
(PID.TID 0000.0001) %MON exf_lwdown_mean              =   3.5380649404963E+02
(PID.TID 0000.0001) %MON exf_lwdown_sd                =   5.7261793463280E+01
(PID.TID 0000.0001) %MON exf_lwdown_del2              =   4.7300663801021E-01
(PID.TID 0000.0001) %MON exf_runoff_max               =   2.0894619964573E-06
(PID.TID 0000.0001) %MON exf_runoff_min               =   0.0000000000000E+00
(PID.TID 0000.0001) %MON exf_runoff_mean              =   2.6928648476209E-09
(PID.TID 0000.0001) %MON exf_runoff_sd                =   2.4496966594866E-08
(PID.TID 0000.0001) %MON exf_runoff_del2              =   2.0305921515908E-11
(PID.TID 0000.0001) %MON exf_climsss_max              =   4.0695156261485E+01
(PID.TID 0000.0001) %MON exf_climsss_min              =   2.0896350578595E+01
(PID.TID 0000.0001) %MON exf_climsss_mean             =   3.4697062426876E+01
(PID.TID 0000.0001) %MON exf_climsss_sd               =   1.1479531321295E+00
(PID.TID 0000.0001) %MON exf_climsss_del2             =   3.2044358042050E-04
(PID.TID 0000.0001) // =======================================================
(PID.TID 0000.0001) // End MONITOR EXF statistics
(PID.TID 0000.0001) // =======================================================
 cg2d: Sum(rhs),rhsMax =  -4.26224449285407E-01  1.27905011464686E+00
(PID.TID 0000.0001)      cg2d_init_res =   1.36968525444578E+00
(PID.TID 0000.0001)      cg2d_iters(min,last) =      -1     138
(PID.TID 0000.0001)      cg2d_last_res =   6.88805560858676E-06
(PID.TID 0000.0001) // =======================================================
(PID.TID 0000.0001) // Begin MONITOR dynamic field statistics
(PID.TID 0000.0001) // =======================================================
(PID.TID 0000.0001) %MON time_tsnumber                =                     3
(PID.TID 0000.0001) %MON time_secondsf                =   1.0800000000000E+04
(PID.TID 0000.0001) %MON dynstat_eta_max              =   8.9852434731235E-01
(PID.TID 0000.0001) %MON dynstat_eta_min              =  -3.1371596791290E+00
(PID.TID 0000.0001) %MON dynstat_eta_mean             =   2.2433175005801E-04
(PID.TID 0000.0001) %MON dynstat_eta_sd               =   2.8239327123753E-01
(PID.TID 0000.0001) %MON dynstat_eta_del2             =   1.6942880112635E-04
(PID.TID 0000.0001) %MON dynstat_uvel_max             =   5.0991256867566E-01
(PID.TID 0000.0001) %MON dynstat_uvel_min             =  -3.8578922183793E-01
(PID.TID 0000.0001) %MON dynstat_uvel_mean            =  -4.0757981460814E-03
(PID.TID 0000.0001) %MON dynstat_uvel_sd              =   1.4478414491192E-02
(PID.TID 0000.0001) %MON dynstat_uvel_del2            =   5.7058782978138E-06
(PID.TID 0000.0001) %MON dynstat_vvel_max             =   3.7992069298777E-01
(PID.TID 0000.0001) %MON dynstat_vvel_min             =  -3.8026345979235E-01
(PID.TID 0000.0001) %MON dynstat_vvel_mean            =  -5.9249868870607E-04
(PID.TID 0000.0001) %MON dynstat_vvel_sd              =   1.5391077868694E-02
(PID.TID 0000.0001) %MON dynstat_vvel_del2            =   5.5392544590096E-06
(PID.TID 0000.0001) %MON dynstat_wvel_max             =   4.1346607051681E-03
(PID.TID 0000.0001) %MON dynstat_wvel_min             =  -3.3465591093392E-03
(PID.TID 0000.0001) %MON dynstat_wvel_mean            =  -4.7369044959523E-07
(PID.TID 0000.0001) %MON dynstat_wvel_sd              =   8.3668608153465E-05
(PID.TID 0000.0001) %MON dynstat_wvel_del2            =   8.9568113840582E-08
(PID.TID 0000.0001) %MON dynstat_theta_max            =   3.1210551784620E+01
(PID.TID 0000.0001) %MON dynstat_theta_min            =  -2.1001661235355E+00
(PID.TID 0000.0001) %MON dynstat_theta_mean           =   3.5920405072924E+00
(PID.TID 0000.0001) %MON dynstat_theta_sd             =   4.4366260846136E+00
(PID.TID 0000.0001) %MON dynstat_theta_del2           =   8.2511367264378E-05
(PID.TID 0000.0001) %MON dynstat_salt_max             =   4.0697156897789E+01
(PID.TID 0000.0001) %MON dynstat_salt_min             =   2.0318799939218E+01
(PID.TID 0000.0001) %MON dynstat_salt_mean            =   3.4725609342233E+01
(PID.TID 0000.0001) %MON dynstat_salt_sd              =   3.8184382329828E-01
(PID.TID 0000.0001) %MON dynstat_salt_del2            =   2.1927616531542E-05
(PID.TID 0000.0001) %MON forcing_qnet_max             =   1.3096929610956E+03
(PID.TID 0000.0001) %MON forcing_qnet_min             =  -8.3350613557702E+02
(PID.TID 0000.0001) %MON forcing_qnet_mean            =  -1.6826178319498E+01
(PID.TID 0000.0001) %MON forcing_qnet_sd              =   1.3588565792310E+02
(PID.TID 0000.0001) %MON forcing_qnet_del2            =   2.2383552697863E-01
(PID.TID 0000.0001) %MON forcing_qsw_max              =   0.0000000000000E+00
(PID.TID 0000.0001) %MON forcing_qsw_min              =  -3.1828127219075E+02
(PID.TID 0000.0001) %MON forcing_qsw_mean             =  -1.8407189623652E+02
(PID.TID 0000.0001) %MON forcing_qsw_sd               =   8.1397080465376E+01
(PID.TID 0000.0001) %MON forcing_qsw_del2             =   4.2220667011185E-02
(PID.TID 0000.0001) %MON forcing_empmr_max            =   4.8444674164819E-03
(PID.TID 0000.0001) %MON forcing_empmr_min            =  -3.1531082093213E-03
(PID.TID 0000.0001) %MON forcing_empmr_mean           =  -2.0960037150221E-05
(PID.TID 0000.0001) %MON forcing_empmr_sd             =   1.6666033635551E-04
(PID.TID 0000.0001) %MON forcing_empmr_del2           =   6.6622027319137E-07
(PID.TID 0000.0001) %MON forcing_fu_max               =   8.6356523115538E-01
(PID.TID 0000.0001) %MON forcing_fu_min               =  -6.3148155983243E-01
(PID.TID 0000.0001) %MON forcing_fu_mean              =   6.5759732717289E-03
(PID.TID 0000.0001) %MON forcing_fu_sd                =   6.6593057914501E-02
(PID.TID 0000.0001) %MON forcing_fu_del2              =   3.8745796948952E-05
(PID.TID 0000.0001) %MON forcing_fv_max               =   6.1945781064940E-01
(PID.TID 0000.0001) %MON forcing_fv_min               =  -6.2931863274540E-01
(PID.TID 0000.0001) %MON forcing_fv_mean              =  -6.8243075091888E-03
(PID.TID 0000.0001) %MON forcing_fv_sd                =   7.7333547489713E-02
(PID.TID 0000.0001) %MON forcing_fv_del2              =   4.1057887027857E-05
(PID.TID 0000.0001) %MON trAdv_CFL_u_max              =   6.0995059053510E-02
(PID.TID 0000.0001) %MON trAdv_CFL_v_max              =   6.1110973947886E-02
(PID.TID 0000.0001) %MON trAdv_CFL_w_max              =   1.7961965419806E-01
(PID.TID 0000.0001) %MON advcfl_uvel_max              =   3.3060882997654E-02
(PID.TID 0000.0001) %MON advcfl_vvel_max              =   3.3327809900543E-02
(PID.TID 0000.0001) %MON advcfl_wvel_max              =   1.8762256312324E-01
(PID.TID 0000.0001) %MON advcfl_W_hf_max              =   1.9694789215059E-01
(PID.TID 0000.0001) %MON pe_b_mean                    =   6.4521114072720E-05
(PID.TID 0000.0001) %MON ke_max                       =   1.3313107009681E-01
(PID.TID 0000.0001) %MON ke_mean                      =   2.2348086306017E-04
(PID.TID 0000.0001) %MON ke_vol                       =   1.3349979310002E+18
(PID.TID 0000.0001) %MON vort_r_min                   =  -1.5011413893878E-05
(PID.TID 0000.0001) %MON vort_r_max                   =   1.2237592651162E-05
(PID.TID 0000.0001) %MON vort_a_mean                  =  -1.9727864647440E-05
(PID.TID 0000.0001) %MON vort_a_sd                    =   7.4541273956593E-05
(PID.TID 0000.0001) %MON vort_p_mean                  =  -2.1760524076675E-05
(PID.TID 0000.0001) %MON vort_p_sd                    =   9.7239720107348E-05
(PID.TID 0000.0001) %MON surfExpan_theta_mean         =   3.3160975801283E-05
(PID.TID 0000.0001) %MON surfExpan_salt_mean          =   1.6606529620548E-06
(PID.TID 0000.0001) // =======================================================
(PID.TID 0000.0001) // End MONITOR dynamic field statistics
(PID.TID 0000.0001) // =======================================================
(PID.TID 0000.0001) // =======================================================
(PID.TID 0000.0001) // Begin MONITOR SEAICE statistics
(PID.TID 0000.0001) // =======================================================
(PID.TID 0000.0001) %MON seaice_tsnumber              =                     3
(PID.TID 0000.0001) %MON seaice_time_sec              =   1.0800000000000E+04
(PID.TID 0000.0001) %MON seaice_uice_max              =   4.0000000000000E-01
(PID.TID 0000.0001) %MON seaice_uice_min              =  -4.0000000000000E-01
(PID.TID 0000.0001) %MON seaice_uice_mean             =   1.1105978604925E-02
(PID.TID 0000.0001) %MON seaice_uice_sd               =   1.2337399852367E-01
(PID.TID 0000.0001) %MON seaice_uice_del2             =   5.8142368719250E-05
(PID.TID 0000.0001) %MON seaice_vice_max              =   4.0000000000000E-01
(PID.TID 0000.0001) %MON seaice_vice_min              =  -4.0000000000000E-01
(PID.TID 0000.0001) %MON seaice_vice_mean             =  -1.6534876363413E-02
(PID.TID 0000.0001) %MON seaice_vice_sd               =   1.3853214563016E-01
(PID.TID 0000.0001) %MON seaice_vice_del2             =   5.8422173157258E-05
(PID.TID 0000.0001) %MON seaice_area_max              =   9.7000000000000E-01
(PID.TID 0000.0001) %MON seaice_area_min              =   0.0000000000000E+00
(PID.TID 0000.0001) %MON seaice_area_mean             =   4.4809172584734E-02
(PID.TID 0000.0001) %MON seaice_area_sd               =   1.9217617520535E-01
(PID.TID 0000.0001) %MON seaice_area_del2             =   2.4358758997561E-04
(PID.TID 0000.0001) %MON seaice_heff_max              =   2.8282464626234E+00
(PID.TID 0000.0001) %MON seaice_heff_min              =   0.0000000000000E+00
(PID.TID 0000.0001) %MON seaice_heff_mean             =   4.4659438874333E-02
(PID.TID 0000.0001) %MON seaice_heff_sd               =   2.2542805457974E-01
(PID.TID 0000.0001) %MON seaice_heff_del2             =   1.7093083829805E-04
(PID.TID 0000.0001) %MON seaice_hsnow_max             =   7.8092501542326E-01
(PID.TID 0000.0001) %MON seaice_hsnow_min             =  -1.0842021724855E-19
(PID.TID 0000.0001) %MON seaice_hsnow_mean            =   6.5006612311042E-03
(PID.TID 0000.0001) %MON seaice_hsnow_sd              =   3.5217781587022E-02
(PID.TID 0000.0001) %MON seaice_hsnow_del2            =   4.9702450236108E-05
(PID.TID 0000.0001) // =======================================================
(PID.TID 0000.0001) // End MONITOR SEAICE statistics
(PID.TID 0000.0001) // =======================================================
(PID.TID 0000.0001) // =======================================================
(PID.TID 0000.0001) // Begin MONITOR EXF statistics
(PID.TID 0000.0001) // =======================================================
(PID.TID 0000.0001) %MON exf_tsnumber                 =                     3
(PID.TID 0000.0001) %MON exf_time_sec                 =   1.0800000000000E+04
(PID.TID 0000.0001) %MON exf_ustress_max              =   9.2344675752536E-01
(PID.TID 0000.0001) %MON exf_ustress_min              =  -6.6473925163909E-01
(PID.TID 0000.0001) %MON exf_ustress_mean             =   6.6381822052088E-03
(PID.TID 0000.0001) %MON exf_ustress_sd               =   6.9198891687884E-02
(PID.TID 0000.0001) %MON exf_ustress_del2             =   3.7897002556912E-05
(PID.TID 0000.0001) %MON exf_vstress_max              =   6.1973395318396E-01
(PID.TID 0000.0001) %MON exf_vstress_min              =  -6.9669975184919E-01
(PID.TID 0000.0001) %MON exf_vstress_mean             =  -6.1709856671420E-03
(PID.TID 0000.0001) %MON exf_vstress_sd               =   8.1143958794330E-02
(PID.TID 0000.0001) %MON exf_vstress_del2             =   4.0215487212600E-05
(PID.TID 0000.0001) %MON exf_hflux_max                =   1.1371226656589E+03
(PID.TID 0000.0001) %MON exf_hflux_min                =  -2.5759648457271E+02
(PID.TID 0000.0001) %MON exf_hflux_mean               =  -1.1078477102269E+01
(PID.TID 0000.0001) %MON exf_hflux_sd                 =   1.5854342513427E+02
(PID.TID 0000.0001) %MON exf_hflux_del2               =   3.0564288755256E-01
(PID.TID 0000.0001) %MON exf_sflux_max                =   2.3076926961404E-07
(PID.TID 0000.0001) %MON exf_sflux_min                =  -2.1959313010779E-06
(PID.TID 0000.0001) %MON exf_sflux_mean               =  -1.7484967983395E-09
(PID.TID 0000.0001) %MON exf_sflux_sd                 =   4.5071671552496E-08
(PID.TID 0000.0001) %MON exf_sflux_del2               =   5.2983094236237E-11
(PID.TID 0000.0001) %MON exf_uwind_max                =   1.8377804165155E+01
(PID.TID 0000.0001) %MON exf_uwind_min                =  -1.7300123195215E+01
(PID.TID 0000.0001) %MON exf_uwind_mean               =   3.9731919914113E-01
(PID.TID 0000.0001) %MON exf_uwind_sd                 =   4.5306526189933E+00
(PID.TID 0000.0001) %MON exf_uwind_del2               =   1.3775088049065E-03
(PID.TID 0000.0001) %MON exf_vwind_max                =   1.6660243300332E+01
(PID.TID 0000.0001) %MON exf_vwind_min                =  -1.6726204547757E+01
(PID.TID 0000.0001) %MON exf_vwind_mean               =  -5.5417065823312E-01
(PID.TID 0000.0001) %MON exf_vwind_sd                 =   5.1812184123283E+00
(PID.TID 0000.0001) %MON exf_vwind_del2               =   1.3464872483267E-03
(PID.TID 0000.0001) %MON exf_wspeed_max               =   2.1041611761323E+01
(PID.TID 0000.0001) %MON exf_wspeed_min               =   1.6600980016265E-02
(PID.TID 0000.0001) %MON exf_wspeed_mean              =   6.2063006758673E+00
(PID.TID 0000.0001) %MON exf_wspeed_sd                =   3.0526442595596E+00
(PID.TID 0000.0001) %MON exf_wspeed_del2              =   9.8800284656109E-03
(PID.TID 0000.0001) %MON exf_atemp_max                =   3.0353596005741E+02
(PID.TID 0000.0001) %MON exf_atemp_min                =   2.2915379684598E+02
(PID.TID 0000.0001) %MON exf_atemp_mean               =   2.8894392169805E+02
(PID.TID 0000.0001) %MON exf_atemp_sd                 =   1.2337194046817E+01
(PID.TID 0000.0001) %MON exf_atemp_del2               =   2.6766220131606E-02
(PID.TID 0000.0001) %MON exf_aqh_max                  =   2.0196428622484E-02
(PID.TID 0000.0001) %MON exf_aqh_min                  =  -1.8096960247647E-04
(PID.TID 0000.0001) %MON exf_aqh_mean                 =   1.0855118878168E-02
(PID.TID 0000.0001) %MON exf_aqh_sd                   =   5.3049237339092E-03
(PID.TID 0000.0001) %MON exf_aqh_del2                 =   1.4452384486965E-05
(PID.TID 0000.0001) %MON exf_lwflux_max               =   1.5090022723799E+02
(PID.TID 0000.0001) %MON exf_lwflux_min               =   2.0610391612379E+01
(PID.TID 0000.0001) %MON exf_lwflux_mean              =   5.8867058504251E+01
(PID.TID 0000.0001) %MON exf_lwflux_sd                =   1.7589415393265E+01
(PID.TID 0000.0001) %MON exf_lwflux_del2              =   9.4265980500492E-02
(PID.TID 0000.0001) %MON exf_evap_max                 =   2.7443598489472E-07
(PID.TID 0000.0001) %MON exf_evap_min                 =  -4.3273191857038E-08
(PID.TID 0000.0001) %MON exf_evap_mean                =   3.6633819793358E-08
(PID.TID 0000.0001) %MON exf_evap_sd                  =   2.5611002593109E-08
(PID.TID 0000.0001) %MON exf_evap_del2                =   5.6183286037807E-11
(PID.TID 0000.0001) %MON exf_precip_max               =   1.8674614663454E-07
(PID.TID 0000.0001) %MON exf_precip_min               =   3.0306894204118E-10
(PID.TID 0000.0001) %MON exf_precip_mean              =   3.5689156069507E-08
(PID.TID 0000.0001) %MON exf_precip_sd                =   2.9536320332982E-08
(PID.TID 0000.0001) %MON exf_precip_del2              =   6.2625068142836E-11
(PID.TID 0000.0001) %MON exf_swflux_max               =  -0.0000000000000E+00
(PID.TID 0000.0001) %MON exf_swflux_min               =  -3.1806798959718E+02
(PID.TID 0000.0001) %MON exf_swflux_mean              =  -1.8673930185382E+02
(PID.TID 0000.0001) %MON exf_swflux_sd                =   8.0885111945776E+01
(PID.TID 0000.0001) %MON exf_swflux_del2              =   2.8037959057751E-01
(PID.TID 0000.0001) %MON exf_swdown_max               =   3.4054388607835E+02
(PID.TID 0000.0001) %MON exf_swdown_min               =   0.0000000000000E+00
(PID.TID 0000.0001) %MON exf_swdown_mean              =   1.9993501269145E+02
(PID.TID 0000.0001) %MON exf_swdown_sd                =   8.6600762254578E+01
(PID.TID 0000.0001) %MON exf_swdown_del2              =   3.0019228113224E-01
(PID.TID 0000.0001) %MON exf_lwdown_max               =   4.3461715207742E+02
(PID.TID 0000.0001) %MON exf_lwdown_min               =   1.6787019838216E+02
(PID.TID 0000.0001) %MON exf_lwdown_mean              =   3.5380419836441E+02
(PID.TID 0000.0001) %MON exf_lwdown_sd                =   5.7246727703298E+01
(PID.TID 0000.0001) %MON exf_lwdown_del2              =   4.7301340304475E-01
(PID.TID 0000.0001) %MON exf_runoff_max               =   2.0908035936421E-06
(PID.TID 0000.0001) %MON exf_runoff_min               =   0.0000000000000E+00
(PID.TID 0000.0001) %MON exf_runoff_mean              =   2.6931605221898E-09
(PID.TID 0000.0001) %MON exf_runoff_sd                =   2.4510414391307E-08
(PID.TID 0000.0001) %MON exf_runoff_del2              =   2.0311213782018E-11
(PID.TID 0000.0001) %MON exf_climsss_max              =   4.0694766629127E+01
(PID.TID 0000.0001) %MON exf_climsss_min              =   2.0896805801699E+01
(PID.TID 0000.0001) %MON exf_climsss_mean             =   3.4697079118447E+01
(PID.TID 0000.0001) %MON exf_climsss_sd               =   1.1478870422659E+00
(PID.TID 0000.0001) %MON exf_climsss_del2             =   3.2045514732269E-04
(PID.TID 0000.0001) // =======================================================
(PID.TID 0000.0001) // End MONITOR EXF statistics
(PID.TID 0000.0001) // =======================================================
 cg2d: Sum(rhs),rhsMax =  -5.59284749032712E-01  1.25698027958438E+00
(PID.TID 0000.0001)      cg2d_init_res =   1.10916376186209E+00
(PID.TID 0000.0001)      cg2d_iters(min,last) =      -1     137
(PID.TID 0000.0001)      cg2d_last_res =   6.57975907859729E-06
(PID.TID 0000.0001) // =======================================================
(PID.TID 0000.0001) // Begin MONITOR dynamic field statistics
(PID.TID 0000.0001) // =======================================================
(PID.TID 0000.0001) %MON time_tsnumber                =                     4
(PID.TID 0000.0001) %MON time_secondsf                =   1.4400000000000E+04
(PID.TID 0000.0001) %MON dynstat_eta_max              =   1.0013514672310E+00
(PID.TID 0000.0001) %MON dynstat_eta_min              =  -3.1125941060680E+00
(PID.TID 0000.0001) %MON dynstat_eta_mean             =   2.9560542601180E-04
(PID.TID 0000.0001) %MON dynstat_eta_sd               =   3.4068862026121E-01
(PID.TID 0000.0001) %MON dynstat_eta_del2             =   1.6892154340857E-04
(PID.TID 0000.0001) %MON dynstat_uvel_max             =   5.5258371800005E-01
(PID.TID 0000.0001) %MON dynstat_uvel_min             =  -4.2150972780396E-01
(PID.TID 0000.0001) %MON dynstat_uvel_mean            =  -4.8646948941946E-03
(PID.TID 0000.0001) %MON dynstat_uvel_sd              =   1.6820779321470E-02
(PID.TID 0000.0001) %MON dynstat_uvel_del2            =   6.8424643069548E-06
(PID.TID 0000.0001) %MON dynstat_vvel_max             =   4.7117233529039E-01
(PID.TID 0000.0001) %MON dynstat_vvel_min             =  -4.1326532725175E-01
(PID.TID 0000.0001) %MON dynstat_vvel_mean            =  -2.1354413578503E-03
(PID.TID 0000.0001) %MON dynstat_vvel_sd              =   1.7819336841862E-02
(PID.TID 0000.0001) %MON dynstat_vvel_del2            =   6.6561578076241E-06
(PID.TID 0000.0001) %MON dynstat_wvel_max             =   5.2296366748209E-03
(PID.TID 0000.0001) %MON dynstat_wvel_min             =  -4.3128851166853E-03
(PID.TID 0000.0001) %MON dynstat_wvel_mean            =  -3.2071680682799E-07
(PID.TID 0000.0001) %MON dynstat_wvel_sd              =   9.2769604881537E-05
(PID.TID 0000.0001) %MON dynstat_wvel_del2            =   1.0161276219507E-07
(PID.TID 0000.0001) %MON dynstat_theta_max            =   3.1205582170152E+01
(PID.TID 0000.0001) %MON dynstat_theta_min            =  -2.1000920323719E+00
(PID.TID 0000.0001) %MON dynstat_theta_mean           =   3.5920481137739E+00
(PID.TID 0000.0001) %MON dynstat_theta_sd             =   4.4366315522436E+00
(PID.TID 0000.0001) %MON dynstat_theta_del2           =   8.1857746187128E-05
(PID.TID 0000.0001) %MON dynstat_salt_max             =   4.0694681496378E+01
(PID.TID 0000.0001) %MON dynstat_salt_min             =   2.0349724301766E+01
(PID.TID 0000.0001) %MON dynstat_salt_mean            =   3.4725608743590E+01
(PID.TID 0000.0001) %MON dynstat_salt_sd              =   3.8184629437159E-01
(PID.TID 0000.0001) %MON dynstat_salt_del2            =   2.1661433290067E-05
(PID.TID 0000.0001) %MON forcing_qnet_max             =   1.3067391886893E+03
(PID.TID 0000.0001) %MON forcing_qnet_min             =  -5.0717968736748E+02
(PID.TID 0000.0001) %MON forcing_qnet_mean            =  -1.5891712494344E+01
(PID.TID 0000.0001) %MON forcing_qnet_sd              =   1.3742336389064E+02
(PID.TID 0000.0001) %MON forcing_qnet_del2            =   2.2008723232545E-01
(PID.TID 0000.0001) %MON forcing_qsw_max              =   0.0000000000000E+00
(PID.TID 0000.0001) %MON forcing_qsw_min              =  -3.1806798959718E+02
(PID.TID 0000.0001) %MON forcing_qsw_mean             =  -1.8409268140178E+02
(PID.TID 0000.0001) %MON forcing_qsw_sd               =   8.1365543464803E+01
(PID.TID 0000.0001) %MON forcing_qsw_del2             =   4.2152801340304E-02
(PID.TID 0000.0001) %MON forcing_empmr_max            =   3.8661626089838E-03
(PID.TID 0000.0001) %MON forcing_empmr_min            =  -3.1243140556992E-03
(PID.TID 0000.0001) %MON forcing_empmr_mean           =  -2.0372392376771E-05
(PID.TID 0000.0001) %MON forcing_empmr_sd             =   1.6379084601073E-04
(PID.TID 0000.0001) %MON forcing_empmr_del2           =   6.5177564682895E-07
(PID.TID 0000.0001) %MON forcing_fu_max               =   9.1348105208740E-01
(PID.TID 0000.0001) %MON forcing_fu_min               =  -6.9128795216288E-01
(PID.TID 0000.0001) %MON forcing_fu_mean              =   6.6894462330343E-03
(PID.TID 0000.0001) %MON forcing_fu_sd                =   6.9711363433304E-02
(PID.TID 0000.0001) %MON forcing_fu_del2              =   4.1314957164115E-05
(PID.TID 0000.0001) %MON forcing_fv_max               =   6.6912046025137E-01
(PID.TID 0000.0001) %MON forcing_fv_min               =  -6.9128743129779E-01
(PID.TID 0000.0001) %MON forcing_fv_mean              =  -5.9466947733558E-03
(PID.TID 0000.0001) %MON forcing_fv_sd                =   8.1311395488824E-02
(PID.TID 0000.0001) %MON forcing_fv_del2              =   3.9557858483769E-05
(PID.TID 0000.0001) %MON trAdv_CFL_u_max              =   6.3877147053167E-02
(PID.TID 0000.0001) %MON trAdv_CFL_v_max              =   8.0042615142087E-02
(PID.TID 0000.0001) %MON trAdv_CFL_w_max              =   2.1620316522506E-01
(PID.TID 0000.0001) %MON advcfl_uvel_max              =   3.6122014313696E-02
(PID.TID 0000.0001) %MON advcfl_vvel_max              =   3.5032839077019E-02
(PID.TID 0000.0001) %MON advcfl_wvel_max              =   2.2601661689071E-01
(PID.TID 0000.0001) %MON advcfl_W_hf_max              =   2.3759372785971E-01
(PID.TID 0000.0001) %MON pe_b_mean                    =   1.0452282912779E-04
(PID.TID 0000.0001) %MON ke_max                       =   1.6804274836495E-01
(PID.TID 0000.0001) %MON ke_mean                      =   3.0314803360943E-04
(PID.TID 0000.0001) %MON ke_vol                       =   1.3349979572532E+18
(PID.TID 0000.0001) %MON vort_r_min                   =  -1.7464979737729E-05
(PID.TID 0000.0001) %MON vort_r_max                   =   1.4422500773816E-05
(PID.TID 0000.0001) %MON vort_a_mean                  =  -1.9727864647440E-05
(PID.TID 0000.0001) %MON vort_a_sd                    =   7.4540876467129E-05
(PID.TID 0000.0001) %MON vort_p_mean                  =  -2.1760523225355E-05
(PID.TID 0000.0001) %MON vort_p_sd                    =   9.7236196393414E-05
(PID.TID 0000.0001) %MON surfExpan_theta_mean         =   2.9026206757038E-05
(PID.TID 0000.0001) %MON surfExpan_salt_mean          =   1.6681477701189E-06
(PID.TID 0000.0001) // =======================================================
(PID.TID 0000.0001) // End MONITOR dynamic field statistics
(PID.TID 0000.0001) // =======================================================
(PID.TID 0000.0001) // =======================================================
(PID.TID 0000.0001) // Begin MONITOR SEAICE statistics
(PID.TID 0000.0001) // =======================================================
(PID.TID 0000.0001) %MON seaice_tsnumber              =                     4
(PID.TID 0000.0001) %MON seaice_time_sec              =   1.4400000000000E+04
(PID.TID 0000.0001) %MON seaice_uice_max              =   4.0000000000000E-01
(PID.TID 0000.0001) %MON seaice_uice_min              =  -4.0000000000000E-01
(PID.TID 0000.0001) %MON seaice_uice_mean             =   1.1036451350238E-02
(PID.TID 0000.0001) %MON seaice_uice_sd               =   1.3467928816647E-01
(PID.TID 0000.0001) %MON seaice_uice_del2             =   6.8139477681837E-05
(PID.TID 0000.0001) %MON seaice_vice_max              =   4.0000000000000E-01
(PID.TID 0000.0001) %MON seaice_vice_min              =  -4.0000000000000E-01
(PID.TID 0000.0001) %MON seaice_vice_mean             =  -1.6720063491819E-02
(PID.TID 0000.0001) %MON seaice_vice_sd               =   1.4956529998029E-01
(PID.TID 0000.0001) %MON seaice_vice_del2             =   6.8870249866809E-05
(PID.TID 0000.0001) %MON seaice_area_max              =   9.7000000000000E-01
(PID.TID 0000.0001) %MON seaice_area_min              =   0.0000000000000E+00
(PID.TID 0000.0001) %MON seaice_area_mean             =   4.4713013021417E-02
(PID.TID 0000.0001) %MON seaice_area_sd               =   1.9191243154946E-01
(PID.TID 0000.0001) %MON seaice_area_del2             =   2.4226116864932E-04
(PID.TID 0000.0001) %MON seaice_heff_max              =   2.8277576041862E+00
(PID.TID 0000.0001) %MON seaice_heff_min              =   0.0000000000000E+00
(PID.TID 0000.0001) %MON seaice_heff_mean             =   4.4582083731112E-02
(PID.TID 0000.0001) %MON seaice_heff_sd               =   2.2521074060320E-01
(PID.TID 0000.0001) %MON seaice_heff_del2             =   1.6950039478397E-04
(PID.TID 0000.0001) %MON seaice_hsnow_max             =   7.8059157443754E-01
(PID.TID 0000.0001) %MON seaice_hsnow_min             =  -5.4210108624275E-20
(PID.TID 0000.0001) %MON seaice_hsnow_mean            =   6.4917296183000E-03
(PID.TID 0000.0001) %MON seaice_hsnow_sd              =   3.5187760946152E-02
(PID.TID 0000.0001) %MON seaice_hsnow_del2            =   4.9570095063642E-05
(PID.TID 0000.0001) // =======================================================
(PID.TID 0000.0001) // End MONITOR SEAICE statistics
(PID.TID 0000.0001) // =======================================================
(PID.TID 0000.0001) // =======================================================
(PID.TID 0000.0001) // Begin MONITOR EXF statistics
(PID.TID 0000.0001) // =======================================================
(PID.TID 0000.0001) %MON exf_tsnumber                 =                     4
(PID.TID 0000.0001) %MON exf_time_sec                 =   1.4400000000000E+04
(PID.TID 0000.0001) %MON exf_ustress_max              =   9.5970547637497E-01
(PID.TID 0000.0001) %MON exf_ustress_min              =  -6.4364361535134E-01
(PID.TID 0000.0001) %MON exf_ustress_mean             =   6.4894531034865E-03
(PID.TID 0000.0001) %MON exf_ustress_sd               =   6.8160221279484E-02
(PID.TID 0000.0001) %MON exf_ustress_del2             =   3.6664102180652E-05
(PID.TID 0000.0001) %MON exf_vstress_max              =   6.4453638013316E-01
(PID.TID 0000.0001) %MON exf_vstress_min              =  -6.5031145425415E-01
(PID.TID 0000.0001) %MON exf_vstress_mean             =  -6.2253457528668E-03
(PID.TID 0000.0001) %MON exf_vstress_sd               =   8.0377375911675E-02
(PID.TID 0000.0001) %MON exf_vstress_del2             =   3.9870198916589E-05
(PID.TID 0000.0001) %MON exf_hflux_max                =   1.1048789532727E+03
(PID.TID 0000.0001) %MON exf_hflux_min                =  -2.5711805917318E+02
(PID.TID 0000.0001) %MON exf_hflux_mean               =  -1.1516930026708E+01
(PID.TID 0000.0001) %MON exf_hflux_sd                 =   1.5794438497433E+02
(PID.TID 0000.0001) %MON exf_hflux_del2               =   3.0532605930542E-01
(PID.TID 0000.0001) %MON exf_sflux_max                =   2.1638877178523E-07
(PID.TID 0000.0001) %MON exf_sflux_min                =  -2.1953168675345E-06
(PID.TID 0000.0001) %MON exf_sflux_mean               =  -1.8688489731498E-09
(PID.TID 0000.0001) %MON exf_sflux_sd                 =   4.4941368575110E-08
(PID.TID 0000.0001) %MON exf_sflux_del2               =   5.2733777782093E-11
(PID.TID 0000.0001) %MON exf_uwind_max                =   1.8655087463369E+01
(PID.TID 0000.0001) %MON exf_uwind_min                =  -1.7050055040743E+01
(PID.TID 0000.0001) %MON exf_uwind_mean               =   3.8836561680071E-01
(PID.TID 0000.0001) %MON exf_uwind_sd                 =   4.5074440427232E+00
(PID.TID 0000.0001) %MON exf_uwind_del2               =   1.3092435902007E-03
(PID.TID 0000.0001) %MON exf_vwind_max                =   1.6829266180687E+01
(PID.TID 0000.0001) %MON exf_vwind_min                =  -1.6344264814713E+01
(PID.TID 0000.0001) %MON exf_vwind_mean               =  -5.5872686163685E-01
(PID.TID 0000.0001) %MON exf_vwind_sd                 =   5.1592288280481E+00
(PID.TID 0000.0001) %MON exf_vwind_del2               =   1.2747445081642E-03
(PID.TID 0000.0001) %MON exf_wspeed_max               =   2.1415380697035E+01
(PID.TID 0000.0001) %MON exf_wspeed_min               =   2.4074737481338E-02
(PID.TID 0000.0001) %MON exf_wspeed_mean              =   6.1796016390980E+00
(PID.TID 0000.0001) %MON exf_wspeed_sd                =   3.0348345982488E+00
(PID.TID 0000.0001) %MON exf_wspeed_del2              =   9.8370122366865E-03
(PID.TID 0000.0001) %MON exf_atemp_max                =   3.0307511704485E+02
(PID.TID 0000.0001) %MON exf_atemp_min                =   2.2906059386660E+02
(PID.TID 0000.0001) %MON exf_atemp_mean               =   2.8894336548394E+02
(PID.TID 0000.0001) %MON exf_atemp_sd                 =   1.2335492501640E+01
(PID.TID 0000.0001) %MON exf_atemp_del2               =   2.6768941190358E-02
(PID.TID 0000.0001) %MON exf_aqh_max                  =   2.0026677399816E-02
(PID.TID 0000.0001) %MON exf_aqh_min                  =  -1.7627726350652E-04
(PID.TID 0000.0001) %MON exf_aqh_mean                 =   1.0854532945828E-02
(PID.TID 0000.0001) %MON exf_aqh_sd                   =   5.2992477109139E-03
(PID.TID 0000.0001) %MON exf_aqh_del2                 =   1.4444818183202E-05
(PID.TID 0000.0001) %MON exf_lwflux_max               =   1.5023324034258E+02
(PID.TID 0000.0001) %MON exf_lwflux_min               =   2.0530496702800E+01
(PID.TID 0000.0001) %MON exf_lwflux_mean              =   5.8864423782669E+01
(PID.TID 0000.0001) %MON exf_lwflux_sd                =   1.7559322377909E+01
(PID.TID 0000.0001) %MON exf_lwflux_del2              =   9.4236191605282E-02
(PID.TID 0000.0001) %MON exf_evap_max                 =   2.6005865974849E-07
(PID.TID 0000.0001) %MON exf_evap_min                 =  -3.8035060945807E-08
(PID.TID 0000.0001) %MON exf_evap_mean                =   3.6513611999501E-08
(PID.TID 0000.0001) %MON exf_evap_sd                  =   2.5460849298917E-08
(PID.TID 0000.0001) %MON exf_evap_del2                =   5.5994549303747E-11
(PID.TID 0000.0001) %MON exf_precip_max               =   1.8666247817934E-07
(PID.TID 0000.0001) %MON exf_precip_min               =   3.0355514459942E-10
(PID.TID 0000.0001) %MON exf_precip_mean              =   3.5689004775892E-08
(PID.TID 0000.0001) %MON exf_precip_sd                =   2.9528097355851E-08
(PID.TID 0000.0001) %MON exf_precip_del2              =   6.2616497710021E-11
(PID.TID 0000.0001) %MON exf_swflux_max               =  -0.0000000000000E+00
(PID.TID 0000.0001) %MON exf_swflux_min               =  -3.1785470700361E+02
(PID.TID 0000.0001) %MON exf_swflux_mean              =  -1.8674774105623E+02
(PID.TID 0000.0001) %MON exf_swflux_sd                =   8.0866325940613E+01
(PID.TID 0000.0001) %MON exf_swflux_del2              =   2.8037262926728E-01
(PID.TID 0000.0001) %MON exf_swdown_max               =   3.4031553212378E+02
(PID.TID 0000.0001) %MON exf_swdown_min               =   0.0000000000000E+00
(PID.TID 0000.0001) %MON exf_swdown_mean              =   1.9994404824008E+02
(PID.TID 0000.0001) %MON exf_swdown_sd                =   8.6580648758686E+01
(PID.TID 0000.0001) %MON exf_swdown_del2              =   3.0018482790929E-01
(PID.TID 0000.0001) %MON exf_lwdown_max               =   4.3442719736665E+02
(PID.TID 0000.0001) %MON exf_lwdown_min               =   1.6812473607349E+02
(PID.TID 0000.0001) %MON exf_lwdown_mean              =   3.5380190267919E+02
(PID.TID 0000.0001) %MON exf_lwdown_sd                =   5.7231994521364E+01
(PID.TID 0000.0001) %MON exf_lwdown_del2              =   4.7302031251540E-01
(PID.TID 0000.0001) %MON exf_runoff_max               =   2.0921451908268E-06
(PID.TID 0000.0001) %MON exf_runoff_min               =   0.0000000000000E+00
(PID.TID 0000.0001) %MON exf_runoff_mean              =   2.6934561967587E-09
(PID.TID 0000.0001) %MON exf_runoff_sd                =   2.4523864750960E-08
(PID.TID 0000.0001) %MON exf_runoff_del2              =   2.0316512767592E-11
(PID.TID 0000.0001) %MON exf_climsss_max              =   4.0694376996768E+01
(PID.TID 0000.0001) %MON exf_climsss_min              =   2.0897261024803E+01
(PID.TID 0000.0001) %MON exf_climsss_mean             =   3.4697095810018E+01
(PID.TID 0000.0001) %MON exf_climsss_sd               =   1.1478210774184E+00
(PID.TID 0000.0001) %MON exf_climsss_del2             =   3.2046710980589E-04
(PID.TID 0000.0001) // =======================================================
(PID.TID 0000.0001) // End MONITOR EXF statistics
(PID.TID 0000.0001) // =======================================================
 cg2d: Sum(rhs),rhsMax =  -6.90938016339523E-01  1.23313674960492E+00
(PID.TID 0000.0001)      cg2d_init_res =   1.04940080733895E+00
(PID.TID 0000.0001)      cg2d_iters(min,last) =      -1     135
(PID.TID 0000.0001)      cg2d_last_res =   7.05019234270238E-06
(PID.TID 0000.0001) // =======================================================
(PID.TID 0000.0001) // Begin MONITOR dynamic field statistics
(PID.TID 0000.0001) // =======================================================
(PID.TID 0000.0001) %MON time_tsnumber                =                     5
(PID.TID 0000.0001) %MON time_secondsf                =   1.8000000000000E+04
(PID.TID 0000.0001) %MON dynstat_eta_max              =   1.0558351744362E+00
(PID.TID 0000.0001) %MON dynstat_eta_min              =  -3.3368821226311E+00
(PID.TID 0000.0001) %MON dynstat_eta_mean             =   3.6577657752796E-04
(PID.TID 0000.0001) %MON dynstat_eta_sd               =   3.7793084344680E-01
(PID.TID 0000.0001) %MON dynstat_eta_del2             =   1.6741838504005E-04
(PID.TID 0000.0001) %MON dynstat_uvel_max             =   5.8934450164746E-01
(PID.TID 0000.0001) %MON dynstat_uvel_min             =  -5.0511690540225E-01
(PID.TID 0000.0001) %MON dynstat_uvel_mean            =  -5.1274930534958E-03
(PID.TID 0000.0001) %MON dynstat_uvel_sd              =   1.8837440695630E-02
(PID.TID 0000.0001) %MON dynstat_uvel_del2            =   7.8724608665229E-06
(PID.TID 0000.0001) %MON dynstat_vvel_max             =   5.5976399849301E-01
(PID.TID 0000.0001) %MON dynstat_vvel_min             =  -4.8640451417633E-01
(PID.TID 0000.0001) %MON dynstat_vvel_mean            =  -3.4303083317698E-03
(PID.TID 0000.0001) %MON dynstat_vvel_sd              =   1.9662401152285E-02
(PID.TID 0000.0001) %MON dynstat_vvel_del2            =   7.6373105094632E-06
(PID.TID 0000.0001) %MON dynstat_wvel_max             =   6.1886122269183E-03
(PID.TID 0000.0001) %MON dynstat_wvel_min             =  -5.2282589366813E-03
(PID.TID 0000.0001) %MON dynstat_wvel_mean            =  -1.9968463500908E-07
(PID.TID 0000.0001) %MON dynstat_wvel_sd              =   9.6191352785732E-05
(PID.TID 0000.0001) %MON dynstat_wvel_del2            =   1.0854464718170E-07
(PID.TID 0000.0001) %MON dynstat_theta_max            =   3.1199063567507E+01
(PID.TID 0000.0001) %MON dynstat_theta_min            =  -2.1000001246601E+00
(PID.TID 0000.0001) %MON dynstat_theta_mean           =   3.5920578901086E+00
(PID.TID 0000.0001) %MON dynstat_theta_sd             =   4.4366404809968E+00
(PID.TID 0000.0001) %MON dynstat_theta_del2           =   8.1215814659541E-05
(PID.TID 0000.0001) %MON dynstat_salt_max             =   4.0692092293852E+01
(PID.TID 0000.0001) %MON dynstat_salt_min             =   2.0380536133796E+01
(PID.TID 0000.0001) %MON dynstat_salt_mean            =   3.4725608317438E+01
(PID.TID 0000.0001) %MON dynstat_salt_sd              =   3.8184873339059E-01
(PID.TID 0000.0001) %MON dynstat_salt_del2            =   2.1416950975670E-05
(PID.TID 0000.0001) %MON forcing_qnet_max             =   1.3027821997173E+03
(PID.TID 0000.0001) %MON forcing_qnet_min             =  -4.0050559357388E+02
(PID.TID 0000.0001) %MON forcing_qnet_mean            =  -1.6396670551141E+01
(PID.TID 0000.0001) %MON forcing_qnet_sd              =   1.3662368516261E+02
(PID.TID 0000.0001) %MON forcing_qnet_del2            =   2.1577753998952E-01
(PID.TID 0000.0001) %MON forcing_qsw_max              =   0.0000000000000E+00
(PID.TID 0000.0001) %MON forcing_qsw_min              =  -3.1785470700361E+02
(PID.TID 0000.0001) %MON forcing_qsw_mean             =  -1.8411340663931E+02
(PID.TID 0000.0001) %MON forcing_qsw_sd               =   8.1336243105060E+01
(PID.TID 0000.0001) %MON forcing_qsw_del2             =   4.2089859042887E-02
(PID.TID 0000.0001) %MON forcing_empmr_max            =   3.1352437325556E-03
(PID.TID 0000.0001) %MON forcing_empmr_min            =  -3.1118162547741E-03
(PID.TID 0000.0001) %MON forcing_empmr_mean           =  -2.0057254141708E-05
(PID.TID 0000.0001) %MON forcing_empmr_sd             =   1.6013330260582E-04
(PID.TID 0000.0001) %MON forcing_empmr_del2           =   6.3699471672378E-07
(PID.TID 0000.0001) %MON forcing_fu_max               =   9.4838948883251E-01
(PID.TID 0000.0001) %MON forcing_fu_min               =  -6.7281781555663E-01
(PID.TID 0000.0001) %MON forcing_fu_mean              =   6.5343781147238E-03
(PID.TID 0000.0001) %MON forcing_fu_sd                =   6.8718909788553E-02
(PID.TID 0000.0001) %MON forcing_fu_del2              =   3.9514290889742E-05
(PID.TID 0000.0001) %MON forcing_fv_max               =   6.8999414025698E-01
(PID.TID 0000.0001) %MON forcing_fv_min               =  -6.4686855380668E-01
(PID.TID 0000.0001) %MON forcing_fv_mean              =  -6.0399621453203E-03
(PID.TID 0000.0001) %MON forcing_fv_sd                =   8.0552330020920E-02
(PID.TID 0000.0001) %MON forcing_fv_del2              =   3.8397379902916E-05
(PID.TID 0000.0001) %MON trAdv_CFL_u_max              =   7.5093307150614E-02
(PID.TID 0000.0001) %MON trAdv_CFL_v_max              =   6.4596315435268E-02
(PID.TID 0000.0001) %MON trAdv_CFL_w_max              =   2.4177472416069E-01
(PID.TID 0000.0001) %MON advcfl_uvel_max              =   3.8654798554186E-02
(PID.TID 0000.0001) %MON advcfl_vvel_max              =   4.1462528787395E-02
(PID.TID 0000.0001) %MON advcfl_wvel_max              =   2.5297378188190E-01
(PID.TID 0000.0001) %MON advcfl_W_hf_max              =   2.6633502543054E-01
(PID.TID 0000.0001) %MON pe_b_mean                    =   1.3418656395235E-04
(PID.TID 0000.0001) %MON ke_max                       =   2.0680659200977E-01
(PID.TID 0000.0001) %MON ke_mean                      =   3.7587388842522E-04
(PID.TID 0000.0001) %MON ke_vol                       =   1.3349979827701E+18
(PID.TID 0000.0001) %MON vort_r_min                   =  -1.9652318616986E-05
(PID.TID 0000.0001) %MON vort_r_max                   =   1.6835037865793E-05
(PID.TID 0000.0001) %MON vort_a_mean                  =  -1.9727864647440E-05
(PID.TID 0000.0001) %MON vort_a_sd                    =   7.4540661219329E-05
(PID.TID 0000.0001) %MON vort_p_mean                  =  -2.1760523297139E-05
(PID.TID 0000.0001) %MON vort_p_sd                    =   9.7232776427130E-05
(PID.TID 0000.0001) %MON surfExpan_theta_mean         =   2.2768015121374E-05
(PID.TID 0000.0001) %MON surfExpan_salt_mean          =   1.5069042876617E-06
(PID.TID 0000.0001) // =======================================================
(PID.TID 0000.0001) // End MONITOR dynamic field statistics
(PID.TID 0000.0001) // =======================================================
(PID.TID 0000.0001) // =======================================================
(PID.TID 0000.0001) // Begin MONITOR SEAICE statistics
(PID.TID 0000.0001) // =======================================================
(PID.TID 0000.0001) %MON seaice_tsnumber              =                     5
(PID.TID 0000.0001) %MON seaice_time_sec              =   1.8000000000000E+04
(PID.TID 0000.0001) %MON seaice_uice_max              =   4.0000000000000E-01
(PID.TID 0000.0001) %MON seaice_uice_min              =  -4.0000000000000E-01
(PID.TID 0000.0001) %MON seaice_uice_mean             =   1.0681720427778E-02
(PID.TID 0000.0001) %MON seaice_uice_sd               =   1.4235175642068E-01
(PID.TID 0000.0001) %MON seaice_uice_del2             =   7.7432456161347E-05
(PID.TID 0000.0001) %MON seaice_vice_max              =   4.0000000000000E-01
(PID.TID 0000.0001) %MON seaice_vice_min              =  -4.0000000000000E-01
(PID.TID 0000.0001) %MON seaice_vice_mean             =  -1.7213161976876E-02
(PID.TID 0000.0001) %MON seaice_vice_sd               =   1.5668003203061E-01
(PID.TID 0000.0001) %MON seaice_vice_del2             =   7.8734652994862E-05
(PID.TID 0000.0001) %MON seaice_area_max              =   9.7000000000000E-01
(PID.TID 0000.0001) %MON seaice_area_min              =   0.0000000000000E+00
(PID.TID 0000.0001) %MON seaice_area_mean             =   4.4625517441311E-02
(PID.TID 0000.0001) %MON seaice_area_sd               =   1.9166195377252E-01
(PID.TID 0000.0001) %MON seaice_area_del2             =   2.4008645329673E-04
(PID.TID 0000.0001) %MON seaice_heff_max              =   2.8272812516990E+00
(PID.TID 0000.0001) %MON seaice_heff_min              =   0.0000000000000E+00
(PID.TID 0000.0001) %MON seaice_heff_mean             =   4.4505975779099E-02
(PID.TID 0000.0001) %MON seaice_heff_sd               =   2.2500386293406E-01
(PID.TID 0000.0001) %MON seaice_heff_del2             =   1.6809758313479E-04
(PID.TID 0000.0001) %MON seaice_hsnow_max             =   7.8026020681501E-01
(PID.TID 0000.0001) %MON seaice_hsnow_min             =  -1.0842021724855E-19
(PID.TID 0000.0001) %MON seaice_hsnow_mean            =   6.4827966529131E-03
(PID.TID 0000.0001) %MON seaice_hsnow_sd              =   3.5159090184031E-02
(PID.TID 0000.0001) %MON seaice_hsnow_del2            =   4.9421815332458E-05
(PID.TID 0000.0001) // =======================================================
(PID.TID 0000.0001) // End MONITOR SEAICE statistics
(PID.TID 0000.0001) // =======================================================
(PID.TID 0000.0001) // =======================================================
(PID.TID 0000.0001) // Begin MONITOR EXF statistics
(PID.TID 0000.0001) // =======================================================
(PID.TID 0000.0001) %MON exf_tsnumber                 =                     5
(PID.TID 0000.0001) %MON exf_time_sec                 =   1.8000000000000E+04
(PID.TID 0000.0001) %MON exf_ustress_max              =   1.0057945457394E+00
(PID.TID 0000.0001) %MON exf_ustress_min              =  -6.2505083193200E-01
(PID.TID 0000.0001) %MON exf_ustress_mean             =   6.3417944703013E-03
(PID.TID 0000.0001) %MON exf_ustress_sd               =   6.7799770804210E-02
(PID.TID 0000.0001) %MON exf_ustress_del2             =   3.6075023288078E-05
(PID.TID 0000.0001) %MON exf_vstress_max              =   6.7046546216834E-01
(PID.TID 0000.0001) %MON exf_vstress_min              =  -6.0611177970474E-01
(PID.TID 0000.0001) %MON exf_vstress_mean             =  -6.2507507964553E-03
(PID.TID 0000.0001) %MON exf_vstress_sd               =   8.0258392994211E-02
(PID.TID 0000.0001) %MON exf_vstress_del2             =   4.0158959998239E-05
(PID.TID 0000.0001) %MON exf_hflux_max                =   1.0733654980685E+03
(PID.TID 0000.0001) %MON exf_hflux_min                =  -2.5670986344299E+02
(PID.TID 0000.0001) %MON exf_hflux_mean               =  -1.1688226336986E+01
(PID.TID 0000.0001) %MON exf_hflux_sd                 =   1.5760355959752E+02
(PID.TID 0000.0001) %MON exf_hflux_del2               =   3.0535214652726E-01
(PID.TID 0000.0001) %MON exf_sflux_max                =   2.0316859535780E-07
(PID.TID 0000.0001) %MON exf_sflux_min                =  -2.1947146923263E-06
(PID.TID 0000.0001) %MON exf_sflux_mean               =  -1.9068548366173E-09
(PID.TID 0000.0001) %MON exf_sflux_sd                 =   4.4846874332109E-08
(PID.TID 0000.0001) %MON exf_sflux_del2               =   5.2551448766293E-11
(PID.TID 0000.0001) %MON exf_uwind_max                =   1.8932370761583E+01
(PID.TID 0000.0001) %MON exf_uwind_min                =  -1.6799986886272E+01
(PID.TID 0000.0001) %MON exf_uwind_mean               =   3.7941203446030E-01
(PID.TID 0000.0001) %MON exf_uwind_sd                 =   4.4997926448820E+00
(PID.TID 0000.0001) %MON exf_uwind_del2               =   1.2939143294490E-03
(PID.TID 0000.0001) %MON exf_vwind_max                =   1.6998289061041E+01
(PID.TID 0000.0001) %MON exf_vwind_min                =  -1.5962325081669E+01
(PID.TID 0000.0001) %MON exf_vwind_mean               =  -5.6328306504057E-01
(PID.TID 0000.0001) %MON exf_vwind_sd                 =   5.1486701925310E+00
(PID.TID 0000.0001) %MON exf_vwind_del2               =   1.2658144288143E-03
(PID.TID 0000.0001) %MON exf_wspeed_max               =   2.1790067066319E+01
(PID.TID 0000.0001) %MON exf_wspeed_min               =   1.2391743629127E-02
(PID.TID 0000.0001) %MON exf_wspeed_mean              =   6.1684832373708E+00
(PID.TID 0000.0001) %MON exf_wspeed_sd                =   3.0278696226756E+00
(PID.TID 0000.0001) %MON exf_wspeed_del2              =   9.8253677233563E-03
(PID.TID 0000.0001) %MON exf_atemp_max                =   3.0261427403229E+02
(PID.TID 0000.0001) %MON exf_atemp_min                =   2.2896739088723E+02
(PID.TID 0000.0001) %MON exf_atemp_mean               =   2.8894280926984E+02
(PID.TID 0000.0001) %MON exf_atemp_sd                 =   1.2334629977451E+01
(PID.TID 0000.0001) %MON exf_atemp_del2               =   2.6775383512326E-02
(PID.TID 0000.0001) %MON exf_aqh_max                  =   1.9856926177149E-02
(PID.TID 0000.0001) %MON exf_aqh_min                  =  -1.7199915135456E-04
(PID.TID 0000.0001) %MON exf_aqh_mean                 =   1.0853947013489E-02
(PID.TID 0000.0001) %MON exf_aqh_sd                   =   5.2944037231979E-03
(PID.TID 0000.0001) %MON exf_aqh_del2                 =   1.4438385083419E-05
(PID.TID 0000.0001) %MON exf_lwflux_max               =   1.4957462594537E+02
(PID.TID 0000.0001) %MON exf_lwflux_min               =   2.0455282923805E+01
(PID.TID 0000.0001) %MON exf_lwflux_mean              =   5.8862704953250E+01
(PID.TID 0000.0001) %MON exf_lwflux_sd                =   1.7530616012030E+01
(PID.TID 0000.0001) %MON exf_lwflux_del2              =   9.4205944879153E-02
(PID.TID 0000.0001) %MON exf_evap_max                 =   2.4684165600364E-07
(PID.TID 0000.0001) %MON exf_evap_min                 =  -3.3425897167150E-08
(PID.TID 0000.0001) %MON exf_evap_mean                =   3.6475750516987E-08
(PID.TID 0000.0001) %MON exf_evap_sd                  =   2.5400696635205E-08
(PID.TID 0000.0001) %MON exf_evap_del2                =   5.5985774800126E-11
(PID.TID 0000.0001) %MON exf_precip_max               =   1.8657880972414E-07
(PID.TID 0000.0001) %MON exf_precip_min               =   3.0404134715766E-10
(PID.TID 0000.0001) %MON exf_precip_mean              =   3.5688853482276E-08
(PID.TID 0000.0001) %MON exf_precip_sd                =   2.9519901018090E-08
(PID.TID 0000.0001) %MON exf_precip_del2              =   6.2607954331319E-11
(PID.TID 0000.0001) %MON exf_swflux_max               =  -0.0000000000000E+00
(PID.TID 0000.0001) %MON exf_swflux_min               =  -3.1764142441004E+02
(PID.TID 0000.0001) %MON exf_swflux_mean              =  -1.8675618025865E+02
(PID.TID 0000.0001) %MON exf_swflux_sd                =   8.0849311448496E+01
(PID.TID 0000.0001) %MON exf_swflux_del2              =   2.8036713379891E-01
(PID.TID 0000.0001) %MON exf_swdown_max               =   3.4008717816921E+02
(PID.TID 0000.0001) %MON exf_swdown_min               =   0.0000000000000E+00
(PID.TID 0000.0001) %MON exf_swdown_mean              =   1.9995308378870E+02
(PID.TID 0000.0001) %MON exf_swdown_sd                =   8.6562431957705E+01
(PID.TID 0000.0001) %MON exf_swdown_del2              =   3.0017894411019E-01
(PID.TID 0000.0001) %MON exf_lwdown_max               =   4.3427080669291E+02
(PID.TID 0000.0001) %MON exf_lwdown_min               =   1.6837927376481E+02
(PID.TID 0000.0001) %MON exf_lwdown_mean              =   3.5379960699396E+02
(PID.TID 0000.0001) %MON exf_lwdown_sd                =   5.7217594174390E+01
(PID.TID 0000.0001) %MON exf_lwdown_del2              =   4.7302736641583E-01
(PID.TID 0000.0001) %MON exf_runoff_max               =   2.0934867880116E-06
(PID.TID 0000.0001) %MON exf_runoff_min               =   0.0000000000000E+00
(PID.TID 0000.0001) %MON exf_runoff_mean              =   2.6937518713276E-09
(PID.TID 0000.0001) %MON exf_runoff_sd                =   2.4537317669610E-08
(PID.TID 0000.0001) %MON exf_runoff_del2              =   2.0321818467371E-11
(PID.TID 0000.0001) %MON exf_climsss_max              =   4.0693987364410E+01
(PID.TID 0000.0001) %MON exf_climsss_min              =   2.0897716247907E+01
(PID.TID 0000.0001) %MON exf_climsss_mean             =   3.4697112501590E+01
(PID.TID 0000.0001) %MON exf_climsss_sd               =   1.1477552376087E+00
(PID.TID 0000.0001) %MON exf_climsss_del2             =   3.2047946782581E-04
(PID.TID 0000.0001) // =======================================================
(PID.TID 0000.0001) // End MONITOR EXF statistics
(PID.TID 0000.0001) // =======================================================
 cg2d: Sum(rhs),rhsMax =  -8.20012499907984E-01  1.21310980036511E+00
(PID.TID 0000.0001)      cg2d_init_res =   1.00015725806016E+00
(PID.TID 0000.0001)      cg2d_iters(min,last) =      -1     128
(PID.TID 0000.0001)      cg2d_last_res =   6.53654307985334E-06
(PID.TID 0000.0001) // =======================================================
(PID.TID 0000.0001) // Begin MONITOR dynamic field statistics
(PID.TID 0000.0001) // =======================================================
(PID.TID 0000.0001) %MON time_tsnumber                =                     6
(PID.TID 0000.0001) %MON time_secondsf                =   2.1600000000000E+04
(PID.TID 0000.0001) %MON dynstat_eta_max              =   1.1375942705183E+00
(PID.TID 0000.0001) %MON dynstat_eta_min              =  -3.4271661496681E+00
(PID.TID 0000.0001) %MON dynstat_eta_mean             =   4.3478709445465E-04
(PID.TID 0000.0001) %MON dynstat_eta_sd               =   3.9685261958879E-01
(PID.TID 0000.0001) %MON dynstat_eta_del2             =   1.6636135607121E-04
(PID.TID 0000.0001) %MON dynstat_uvel_max             =   6.0248300255996E-01
(PID.TID 0000.0001) %MON dynstat_uvel_min             =  -5.9807541733400E-01
(PID.TID 0000.0001) %MON dynstat_uvel_mean            =  -4.9555210725407E-03
(PID.TID 0000.0001) %MON dynstat_uvel_sd              =   2.0547411554636E-02
(PID.TID 0000.0001) %MON dynstat_uvel_del2            =   8.7823627285465E-06
(PID.TID 0000.0001) %MON dynstat_vvel_max             =   6.3465043575200E-01
(PID.TID 0000.0001) %MON dynstat_vvel_min             =  -5.4807822649774E-01
(PID.TID 0000.0001) %MON dynstat_vvel_mean            =  -4.2830677644376E-03
(PID.TID 0000.0001) %MON dynstat_vvel_sd              =   2.0926272921291E-02
(PID.TID 0000.0001) %MON dynstat_vvel_del2            =   8.4873315296839E-06
(PID.TID 0000.0001) %MON dynstat_wvel_max             =   7.0185046827473E-03
(PID.TID 0000.0001) %MON dynstat_wvel_min             =  -6.0802565055150E-03
(PID.TID 0000.0001) %MON dynstat_wvel_mean            =  -8.4225824306721E-08
(PID.TID 0000.0001) %MON dynstat_wvel_sd              =   9.6179386226261E-05
(PID.TID 0000.0001) %MON dynstat_wvel_del2            =   1.1145356698316E-07
(PID.TID 0000.0001) %MON dynstat_theta_max            =   3.1192840140288E+01
(PID.TID 0000.0001) %MON dynstat_theta_min            =  -2.0998880812149E+00
(PID.TID 0000.0001) %MON dynstat_theta_mean           =   3.5920680764894E+00
(PID.TID 0000.0001) %MON dynstat_theta_sd             =   4.4366518612376E+00
(PID.TID 0000.0001) %MON dynstat_theta_del2           =   8.0553107715727E-05
(PID.TID 0000.0001) %MON dynstat_salt_max             =   4.0689419470055E+01
(PID.TID 0000.0001) %MON dynstat_salt_min             =   2.0410367180225E+01
(PID.TID 0000.0001) %MON dynstat_salt_mean            =   3.4725608031539E+01
(PID.TID 0000.0001) %MON dynstat_salt_sd              =   3.8185106037687E-01
(PID.TID 0000.0001) %MON dynstat_salt_del2            =   2.1192320120134E-05
(PID.TID 0000.0001) %MON forcing_qnet_max             =   1.2993663694807E+03
(PID.TID 0000.0001) %MON forcing_qnet_min             =  -3.0694726236378E+02
(PID.TID 0000.0001) %MON forcing_qnet_mean            =  -1.6661666318267E+01
(PID.TID 0000.0001) %MON forcing_qnet_sd              =   1.3609628945592E+02
(PID.TID 0000.0001) %MON forcing_qnet_del2            =   2.1310948066206E-01
(PID.TID 0000.0001) %MON forcing_qsw_max              =   0.0000000000000E+00
(PID.TID 0000.0001) %MON forcing_qsw_min              =  -3.1764142441004E+02
(PID.TID 0000.0001) %MON forcing_qsw_mean             =  -1.8413323769388E+02
(PID.TID 0000.0001) %MON forcing_qsw_sd               =   8.1309077147007E+01
(PID.TID 0000.0001) %MON forcing_qsw_del2             =   4.1874573646539E-02
(PID.TID 0000.0001) %MON forcing_empmr_max            =   2.6713720752057E-03
(PID.TID 0000.0001) %MON forcing_empmr_min            =  -3.0977178717458E-03
(PID.TID 0000.0001) %MON forcing_empmr_mean           =  -1.9725506088216E-05
(PID.TID 0000.0001) %MON forcing_empmr_sd             =   1.5711210111122E-04
(PID.TID 0000.0001) %MON forcing_empmr_del2           =   6.2974585294805E-07
(PID.TID 0000.0001) %MON forcing_fu_max               =   9.9525521119196E-01
(PID.TID 0000.0001) %MON forcing_fu_min               =  -6.5282621932868E-01
(PID.TID 0000.0001) %MON forcing_fu_mean              =   6.3651372396750E-03
(PID.TID 0000.0001) %MON forcing_fu_sd                =   6.8370223913933E-02
(PID.TID 0000.0001) %MON forcing_fu_del2              =   3.8838170071448E-05
(PID.TID 0000.0001) %MON forcing_fv_max               =   7.1085654964801E-01
(PID.TID 0000.0001) %MON forcing_fv_min               =  -6.0446453477809E-01
(PID.TID 0000.0001) %MON forcing_fv_mean              =  -6.0860393236253E-03
(PID.TID 0000.0001) %MON forcing_fv_sd                =   8.0442255730860E-02
(PID.TID 0000.0001) %MON forcing_fv_del2              =   3.9139888370808E-05
(PID.TID 0000.0001) %MON trAdv_CFL_u_max              =   7.3858989445520E-02
(PID.TID 0000.0001) %MON trAdv_CFL_v_max              =   6.8787461330170E-02
(PID.TID 0000.0001) %MON trAdv_CFL_w_max              =   2.5716808973012E-01
(PID.TID 0000.0001) %MON advcfl_uvel_max              =   4.2324246368809E-02
(PID.TID 0000.0001) %MON advcfl_vvel_max              =   4.5654772042330E-02
(PID.TID 0000.0001) %MON advcfl_wvel_max              =   2.6934177167284E-01
(PID.TID 0000.0001) %MON advcfl_W_hf_max              =   2.8404018213767E-01
(PID.TID 0000.0001) %MON pe_b_mean                    =   1.4992481889706E-04
(PID.TID 0000.0001) %MON ke_max                       =   2.3692082965883E-01
(PID.TID 0000.0001) %MON ke_mean                      =   4.3541843193575E-04
(PID.TID 0000.0001) %MON ke_vol                       =   1.3349980078924E+18
(PID.TID 0000.0001) %MON vort_r_min                   =  -2.1071804512562E-05
(PID.TID 0000.0001) %MON vort_r_max                   =   1.8803882152651E-05
(PID.TID 0000.0001) %MON vort_a_mean                  =  -1.9727864647440E-05
(PID.TID 0000.0001) %MON vort_a_sd                    =   7.4540629616415E-05
(PID.TID 0000.0001) %MON vort_p_mean                  =  -2.1760523960980E-05
(PID.TID 0000.0001) %MON vort_p_sd                    =   9.7230148623583E-05
(PID.TID 0000.0001) %MON surfExpan_theta_mean         =   1.6149948610567E-05
(PID.TID 0000.0001) %MON surfExpan_salt_mean          =   1.2102488738766E-06
(PID.TID 0000.0001) // =======================================================
(PID.TID 0000.0001) // End MONITOR dynamic field statistics
(PID.TID 0000.0001) // =======================================================
(PID.TID 0000.0001) // =======================================================
(PID.TID 0000.0001) // Begin MONITOR SEAICE statistics
(PID.TID 0000.0001) // =======================================================
(PID.TID 0000.0001) %MON seaice_tsnumber              =                     6
(PID.TID 0000.0001) %MON seaice_time_sec              =   2.1600000000000E+04
(PID.TID 0000.0001) %MON seaice_uice_max              =   4.0000000000000E-01
(PID.TID 0000.0001) %MON seaice_uice_min              =  -4.0000000000000E-01
(PID.TID 0000.0001) %MON seaice_uice_mean             =   1.0319402165181E-02
(PID.TID 0000.0001) %MON seaice_uice_sd               =   1.4849188318109E-01
(PID.TID 0000.0001) %MON seaice_uice_del2             =   8.5783097447108E-05
(PID.TID 0000.0001) %MON seaice_vice_max              =   4.0000000000000E-01
(PID.TID 0000.0001) %MON seaice_vice_min              =  -4.0000000000000E-01
(PID.TID 0000.0001) %MON seaice_vice_mean             =  -1.7254127291132E-02
(PID.TID 0000.0001) %MON seaice_vice_sd               =   1.6180204540294E-01
(PID.TID 0000.0001) %MON seaice_vice_del2             =   8.7450245857400E-05
(PID.TID 0000.0001) %MON seaice_area_max              =   9.7000000000000E-01
(PID.TID 0000.0001) %MON seaice_area_min              =   0.0000000000000E+00
(PID.TID 0000.0001) %MON seaice_area_mean             =   4.4550169876460E-02
(PID.TID 0000.0001) %MON seaice_area_sd               =   1.9142986483431E-01
(PID.TID 0000.0001) %MON seaice_area_del2             =   2.3758732237080E-04
(PID.TID 0000.0001) %MON seaice_heff_max              =   2.8268173253719E+00
(PID.TID 0000.0001) %MON seaice_heff_min              =   0.0000000000000E+00
(PID.TID 0000.0001) %MON seaice_heff_mean             =   4.4431170669139E-02
(PID.TID 0000.0001) %MON seaice_heff_sd               =   2.2480686063409E-01
(PID.TID 0000.0001) %MON seaice_heff_del2             =   1.6675610321082E-04
(PID.TID 0000.0001) %MON seaice_hsnow_max             =   7.7993114477027E-01
(PID.TID 0000.0001) %MON seaice_hsnow_min             =  -1.0842021724855E-19
(PID.TID 0000.0001) %MON seaice_hsnow_mean            =   6.4738900715356E-03
(PID.TID 0000.0001) %MON seaice_hsnow_sd              =   3.5131654740143E-02
(PID.TID 0000.0001) %MON seaice_hsnow_del2            =   4.9269849339759E-05
(PID.TID 0000.0001) // =======================================================
(PID.TID 0000.0001) // End MONITOR SEAICE statistics
(PID.TID 0000.0001) // =======================================================
(PID.TID 0000.0001) // =======================================================
(PID.TID 0000.0001) // Begin MONITOR EXF statistics
(PID.TID 0000.0001) // =======================================================
(PID.TID 0000.0001) %MON exf_tsnumber                 =                     6
(PID.TID 0000.0001) %MON exf_time_sec                 =   2.1600000000000E+04
(PID.TID 0000.0001) %MON exf_ustress_max              =   1.0533610355212E+00
(PID.TID 0000.0001) %MON exf_ustress_min              =  -6.0751292909875E-01
(PID.TID 0000.0001) %MON exf_ustress_mean             =   6.1920978964803E-03
(PID.TID 0000.0001) %MON exf_ustress_sd               =   6.8121410529023E-02
(PID.TID 0000.0001) %MON exf_ustress_del2             =   3.6143336135247E-05
(PID.TID 0000.0001) %MON exf_vstress_max              =   6.9754450216534E-01
(PID.TID 0000.0001) %MON exf_vstress_min              =  -5.6406961715387E-01
(PID.TID 0000.0001) %MON exf_vstress_mean             =  -6.2475183254527E-03
(PID.TID 0000.0001) %MON exf_vstress_sd               =   8.0785986876601E-02
(PID.TID 0000.0001) %MON exf_vstress_del2             =   4.1017497768873E-05
(PID.TID 0000.0001) %MON exf_hflux_max                =   1.0425523058869E+03
(PID.TID 0000.0001) %MON exf_hflux_min                =  -2.5630237586576E+02
(PID.TID 0000.0001) %MON exf_hflux_mean               =  -1.1618379193460E+01
(PID.TID 0000.0001) %MON exf_hflux_sd                 =   1.5753594410676E+02
(PID.TID 0000.0001) %MON exf_hflux_del2               =   3.0585908490795E-01
(PID.TID 0000.0001) %MON exf_sflux_max                =   1.9119171384884E-07
(PID.TID 0000.0001) %MON exf_sflux_min                =  -2.1941211875677E-06
(PID.TID 0000.0001) %MON exf_sflux_mean               =  -1.8702413624457E-09
(PID.TID 0000.0001) %MON exf_sflux_sd                 =   4.4798346970928E-08
(PID.TID 0000.0001) %MON exf_sflux_del2               =   5.2509955648205E-11
(PID.TID 0000.0001) %MON exf_uwind_max                =   1.9209654059797E+01
(PID.TID 0000.0001) %MON exf_uwind_min                =  -1.6549918731801E+01
(PID.TID 0000.0001) %MON exf_uwind_mean               =   3.7045845211988E-01
(PID.TID 0000.0001) %MON exf_uwind_sd                 =   4.5077776453538E+00
(PID.TID 0000.0001) %MON exf_uwind_del2               =   1.2959543943883E-03
(PID.TID 0000.0001) %MON exf_vwind_max                =   1.7167311941396E+01
(PID.TID 0000.0001) %MON exf_vwind_min                =  -1.5580385348625E+01
(PID.TID 0000.0001) %MON exf_vwind_mean               =  -5.6783926844430E-01
(PID.TID 0000.0001) %MON exf_vwind_sd                 =   5.1496128194393E+00
(PID.TID 0000.0001) %MON exf_vwind_del2               =   1.2727948876903E-03
(PID.TID 0000.0001) %MON exf_wspeed_max               =   2.2218829974854E+01
(PID.TID 0000.0001) %MON exf_wspeed_min               =   1.5792647162437E-02
(PID.TID 0000.0001) %MON exf_wspeed_mean              =   6.1730102483304E+00
(PID.TID 0000.0001) %MON exf_wspeed_sd                =   3.0318635958147E+00
(PID.TID 0000.0001) %MON exf_wspeed_del2              =   9.8459917247527E-03
(PID.TID 0000.0001) %MON exf_atemp_max                =   3.0215343101972E+02
(PID.TID 0000.0001) %MON exf_atemp_min                =   2.2887418790785E+02
(PID.TID 0000.0001) %MON exf_atemp_mean               =   2.8894225305573E+02
(PID.TID 0000.0001) %MON exf_atemp_sd                 =   1.2334606650262E+01
(PID.TID 0000.0001) %MON exf_atemp_del2               =   2.6785544412454E-02
(PID.TID 0000.0001) %MON exf_aqh_max                  =   1.9687174954481E-02
(PID.TID 0000.0001) %MON exf_aqh_min                  =  -1.6772103920260E-04
(PID.TID 0000.0001) %MON exf_aqh_mean                 =   1.0853361081149E-02
(PID.TID 0000.0001) %MON exf_aqh_sd                   =   5.2903940562447E-03
(PID.TID 0000.0001) %MON exf_aqh_del2                 =   1.4433086702889E-05
(PID.TID 0000.0001) %MON exf_lwflux_max               =   1.4892373729992E+02
(PID.TID 0000.0001) %MON exf_lwflux_min               =   2.0379666252623E+01
(PID.TID 0000.0001) %MON exf_lwflux_mean              =   5.8861692125787E+01
(PID.TID 0000.0001) %MON exf_lwflux_sd                =   1.7503490982577E+01
(PID.TID 0000.0001) %MON exf_lwflux_del2              =   9.4177228338941E-02
(PID.TID 0000.0001) %MON exf_evap_max                 =   2.3486794717725E-07
(PID.TID 0000.0001) %MON exf_evap_min                 =  -2.9394007331149E-08
(PID.TID 0000.0001) %MON exf_evap_mean                =   3.6512508372112E-08
(PID.TID 0000.0001) %MON exf_evap_sd                  =   2.5440867281265E-08
(PID.TID 0000.0001) %MON exf_evap_del2                =   5.6172929940612E-11
(PID.TID 0000.0001) %MON exf_precip_max               =   1.8649514126894E-07
(PID.TID 0000.0001) %MON exf_precip_min               =   3.0452754971591E-10
(PID.TID 0000.0001) %MON exf_precip_mean              =   3.5688702188661E-08
(PID.TID 0000.0001) %MON exf_precip_sd                =   2.9511731341895E-08
(PID.TID 0000.0001) %MON exf_precip_del2              =   6.2599438017806E-11
(PID.TID 0000.0001) %MON exf_swflux_max               =  -0.0000000000000E+00
(PID.TID 0000.0001) %MON exf_swflux_min               =  -3.1742814181647E+02
(PID.TID 0000.0001) %MON exf_swflux_mean              =  -1.8676461946107E+02
(PID.TID 0000.0001) %MON exf_swflux_sd                =   8.0834069588067E+01
(PID.TID 0000.0001) %MON exf_swflux_del2              =   2.8036310425860E-01
(PID.TID 0000.0001) %MON exf_swdown_max               =   3.3985882421464E+02
(PID.TID 0000.0001) %MON exf_swdown_min               =   0.0000000000000E+00
(PID.TID 0000.0001) %MON exf_swdown_mean              =   1.9996211933733E+02
(PID.TID 0000.0001) %MON exf_swdown_sd                =   8.6546113049322E+01
(PID.TID 0000.0001) %MON exf_swdown_del2              =   3.0017462982720E-01
(PID.TID 0000.0001) %MON exf_lwdown_max               =   4.3411441601917E+02
(PID.TID 0000.0001) %MON exf_lwdown_min               =   1.6863381145614E+02
(PID.TID 0000.0001) %MON exf_lwdown_mean              =   3.5379731130874E+02
(PID.TID 0000.0001) %MON exf_lwdown_sd                =   5.7203526913736E+01
(PID.TID 0000.0001) %MON exf_lwdown_del2              =   4.7303456473957E-01
(PID.TID 0000.0001) %MON exf_runoff_max               =   2.0948283851963E-06
(PID.TID 0000.0001) %MON exf_runoff_min               =   0.0000000000000E+00
(PID.TID 0000.0001) %MON exf_runoff_mean              =   2.6940475458964E-09
(PID.TID 0000.0001) %MON exf_runoff_sd                =   2.4550773143049E-08
(PID.TID 0000.0001) %MON exf_runoff_del2              =   2.0327130876100E-11
(PID.TID 0000.0001) %MON exf_climsss_max              =   4.0693597732052E+01
(PID.TID 0000.0001) %MON exf_climsss_min              =   2.0898171471011E+01
(PID.TID 0000.0001) %MON exf_climsss_mean             =   3.4697129193161E+01
(PID.TID 0000.0001) %MON exf_climsss_sd               =   1.1476895228582E+00
(PID.TID 0000.0001) %MON exf_climsss_del2             =   3.2049222133668E-04
(PID.TID 0000.0001) // =======================================================
(PID.TID 0000.0001) // End MONITOR EXF statistics
(PID.TID 0000.0001) // =======================================================
 cg2d: Sum(rhs),rhsMax =  -9.46889216589065E-01  1.19643084184519E+00
(PID.TID 0000.0001)      cg2d_init_res =   9.42689743468363E-01
(PID.TID 0000.0001)      cg2d_iters(min,last) =      -1     129
(PID.TID 0000.0001)      cg2d_last_res =   6.50650568652083E-06
(PID.TID 0000.0001) // =======================================================
(PID.TID 0000.0001) // Begin MONITOR dynamic field statistics
(PID.TID 0000.0001) // =======================================================
(PID.TID 0000.0001) %MON time_tsnumber                =                     7
(PID.TID 0000.0001) %MON time_secondsf                =   2.5200000000000E+04
(PID.TID 0000.0001) %MON dynstat_eta_max              =   1.2217254679605E+00
(PID.TID 0000.0001) %MON dynstat_eta_min              =  -3.3719433610378E+00
(PID.TID 0000.0001) %MON dynstat_eta_mean             =   5.0272942490252E-04
(PID.TID 0000.0001) %MON dynstat_eta_sd               =   4.0323747771123E-01
(PID.TID 0000.0001) %MON dynstat_eta_del2             =   1.6590737926490E-04
(PID.TID 0000.0001) %MON dynstat_uvel_max             =   6.5563482205762E-01
(PID.TID 0000.0001) %MON dynstat_uvel_min             =  -6.8506237943017E-01
(PID.TID 0000.0001) %MON dynstat_uvel_mean            =  -4.4855008342748E-03
(PID.TID 0000.0001) %MON dynstat_uvel_sd              =   2.1897788105129E-02
(PID.TID 0000.0001) %MON dynstat_uvel_del2            =   9.5529801672968E-06
(PID.TID 0000.0001) %MON dynstat_vvel_max             =   6.9588131847304E-01
(PID.TID 0000.0001) %MON dynstat_vvel_min             =  -6.2706232289067E-01
(PID.TID 0000.0001) %MON dynstat_vvel_mean            =  -4.5638979131742E-03
(PID.TID 0000.0001) %MON dynstat_vvel_sd              =   2.1582248632052E-02
(PID.TID 0000.0001) %MON dynstat_vvel_del2            =   9.2162585231953E-06
(PID.TID 0000.0001) %MON dynstat_wvel_max             =   7.7272005447838E-03
(PID.TID 0000.0001) %MON dynstat_wvel_min             =  -6.8507237652005E-03
(PID.TID 0000.0001) %MON dynstat_wvel_mean            =  -1.3921689664372E-08
(PID.TID 0000.0001) %MON dynstat_wvel_sd              =   9.5503789542019E-05
(PID.TID 0000.0001) %MON dynstat_wvel_del2            =   1.1138452846350E-07
(PID.TID 0000.0001) %MON dynstat_theta_max            =   3.1192003518495E+01
(PID.TID 0000.0001) %MON dynstat_theta_min            =  -2.0997554768246E+00
(PID.TID 0000.0001) %MON dynstat_theta_mean           =   3.5920769820972E+00
(PID.TID 0000.0001) %MON dynstat_theta_sd             =   4.4366644691613E+00
(PID.TID 0000.0001) %MON dynstat_theta_del2           =   7.9927011031760E-05
(PID.TID 0000.0001) %MON dynstat_salt_max             =   4.0686687532160E+01
(PID.TID 0000.0001) %MON dynstat_salt_min             =   2.0439365122671E+01
(PID.TID 0000.0001) %MON dynstat_salt_mean            =   3.4725607773863E+01
(PID.TID 0000.0001) %MON dynstat_salt_sd              =   3.8185326485719E-01
(PID.TID 0000.0001) %MON dynstat_salt_del2            =   2.0989613969667E-05
(PID.TID 0000.0001) %MON forcing_qnet_max             =   1.2962426384871E+03
(PID.TID 0000.0001) %MON forcing_qnet_min             =  -2.5630237586576E+02
(PID.TID 0000.0001) %MON forcing_qnet_mean            =  -1.6695411454177E+01
(PID.TID 0000.0001) %MON forcing_qnet_sd              =   1.3586492738488E+02
(PID.TID 0000.0001) %MON forcing_qnet_del2            =   2.0880487754048E-01
(PID.TID 0000.0001) %MON forcing_qsw_max              =   0.0000000000000E+00
(PID.TID 0000.0001) %MON forcing_qsw_min              =  -3.1742814181647E+02
(PID.TID 0000.0001) %MON forcing_qsw_mean             =  -1.8415258347915E+02
(PID.TID 0000.0001) %MON forcing_qsw_sd               =   8.1284226097868E+01
(PID.TID 0000.0001) %MON forcing_qsw_del2             =   4.1519842728181E-02
(PID.TID 0000.0001) %MON forcing_empmr_max            =   2.3721998567510E-03
(PID.TID 0000.0001) %MON forcing_empmr_min            =  -3.0834202645362E-03
(PID.TID 0000.0001) %MON forcing_empmr_mean           =  -1.9420182786342E-05
(PID.TID 0000.0001) %MON forcing_empmr_sd             =   1.5456670987521E-04
(PID.TID 0000.0001) %MON forcing_empmr_del2           =   6.1902402914519E-07
(PID.TID 0000.0001) %MON forcing_fu_max               =   1.0432820802258E+00
(PID.TID 0000.0001) %MON forcing_fu_min               =  -6.3860902453567E-01
(PID.TID 0000.0001) %MON forcing_fu_mean              =   6.1906330230139E-03
(PID.TID 0000.0001) %MON forcing_fu_sd                =   6.8721499700827E-02
(PID.TID 0000.0001) %MON forcing_fu_del2              =   3.9730914479829E-05
(PID.TID 0000.0001) %MON forcing_fv_max               =   7.3236139833806E-01
(PID.TID 0000.0001) %MON forcing_fv_min               =  -5.6405074179723E-01
(PID.TID 0000.0001) %MON forcing_fv_mean              =  -6.1033968375463E-03
(PID.TID 0000.0001) %MON forcing_fv_sd                =   8.0977289009963E-02
(PID.TID 0000.0001) %MON forcing_fv_del2              =   4.0614879884653E-05
(PID.TID 0000.0001) %MON trAdv_CFL_u_max              =   8.0188197871592E-02
(PID.TID 0000.0001) %MON trAdv_CFL_v_max              =   7.8038775087146E-02
(PID.TID 0000.0001) %MON trAdv_CFL_w_max              =   2.6309462879342E-01
(PID.TID 0000.0001) %MON advcfl_uvel_max              =   4.6242888766917E-02
(PID.TID 0000.0001) %MON advcfl_vvel_max              =   4.7950480610609E-02
(PID.TID 0000.0001) %MON advcfl_wvel_max              =   2.7893506563202E-01
(PID.TID 0000.0001) %MON advcfl_W_hf_max              =   2.9146204864421E-01
(PID.TID 0000.0001) %MON pe_b_mean                    =   1.5430863405085E-04
(PID.TID 0000.0001) %MON ke_max                       =   2.9022258340870E-01
(PID.TID 0000.0001) %MON ke_mean                      =   4.7555833744430E-04
(PID.TID 0000.0001) %MON ke_vol                       =   1.3349980325991E+18
(PID.TID 0000.0001) %MON vort_r_min                   =  -2.1823202747401E-05
(PID.TID 0000.0001) %MON vort_r_max                   =   2.0129285022779E-05
(PID.TID 0000.0001) %MON vort_a_mean                  =  -1.9727864647440E-05
(PID.TID 0000.0001) %MON vort_a_sd                    =   7.4540761401788E-05
(PID.TID 0000.0001) %MON vort_p_mean                  =  -2.1760525020837E-05
(PID.TID 0000.0001) %MON vort_p_sd                    =   9.7228685470495E-05
(PID.TID 0000.0001) %MON surfExpan_theta_mean         =   1.0867045813593E-05
(PID.TID 0000.0001) %MON surfExpan_salt_mean          =   8.9352658481411E-07
(PID.TID 0000.0001) // =======================================================
(PID.TID 0000.0001) // End MONITOR dynamic field statistics
(PID.TID 0000.0001) // =======================================================
(PID.TID 0000.0001) // =======================================================
(PID.TID 0000.0001) // Begin MONITOR SEAICE statistics
(PID.TID 0000.0001) // =======================================================
(PID.TID 0000.0001) %MON seaice_tsnumber              =                     7
(PID.TID 0000.0001) %MON seaice_time_sec              =   2.5200000000000E+04
(PID.TID 0000.0001) %MON seaice_uice_max              =   4.0000000000000E-01
(PID.TID 0000.0001) %MON seaice_uice_min              =  -4.0000000000000E-01
(PID.TID 0000.0001) %MON seaice_uice_mean             =   9.5651344952538E-03
(PID.TID 0000.0001) %MON seaice_uice_sd               =   1.5328572367401E-01
(PID.TID 0000.0001) %MON seaice_uice_del2             =   9.3454992831274E-05
(PID.TID 0000.0001) %MON seaice_vice_max              =   4.0000000000000E-01
(PID.TID 0000.0001) %MON seaice_vice_min              =  -4.0000000000000E-01
(PID.TID 0000.0001) %MON seaice_vice_mean             =  -1.6909669632771E-02
(PID.TID 0000.0001) %MON seaice_vice_sd               =   1.6529434898902E-01
(PID.TID 0000.0001) %MON seaice_vice_del2             =   9.4805077514377E-05
(PID.TID 0000.0001) %MON seaice_area_max              =   9.7000000000000E-01
(PID.TID 0000.0001) %MON seaice_area_min              =   0.0000000000000E+00
(PID.TID 0000.0001) %MON seaice_area_mean             =   4.4465976562460E-02
(PID.TID 0000.0001) %MON seaice_area_sd               =   1.9120203210846E-01
(PID.TID 0000.0001) %MON seaice_area_del2             =   2.3693977238282E-04
(PID.TID 0000.0001) %MON seaice_heff_max              =   2.8263657235874E+00
(PID.TID 0000.0001) %MON seaice_heff_min              =   0.0000000000000E+00
(PID.TID 0000.0001) %MON seaice_heff_mean             =   4.4357570156816E-02
(PID.TID 0000.0001) %MON seaice_heff_sd               =   2.2461921445666E-01
(PID.TID 0000.0001) %MON seaice_heff_del2             =   1.6546449679040E-04
(PID.TID 0000.0001) %MON seaice_hsnow_max             =   7.7960453001533E-01
(PID.TID 0000.0001) %MON seaice_hsnow_min             =  -5.4210108624275E-20
(PID.TID 0000.0001) %MON seaice_hsnow_mean            =   6.4649925205755E-03
(PID.TID 0000.0001) %MON seaice_hsnow_sd              =   3.5105249753872E-02
(PID.TID 0000.0001) %MON seaice_hsnow_del2            =   4.9113383545470E-05
(PID.TID 0000.0001) // =======================================================
(PID.TID 0000.0001) // End MONITOR SEAICE statistics
(PID.TID 0000.0001) // =======================================================
(PID.TID 0000.0001) // =======================================================
(PID.TID 0000.0001) // Begin MONITOR EXF statistics
(PID.TID 0000.0001) // =======================================================
(PID.TID 0000.0001) %MON exf_tsnumber                 =                     7
(PID.TID 0000.0001) %MON exf_time_sec                 =   2.5200000000000E+04
(PID.TID 0000.0001) %MON exf_ustress_max              =   1.1024633420394E+00
(PID.TID 0000.0001) %MON exf_ustress_min              =  -5.9099627986049E-01
(PID.TID 0000.0001) %MON exf_ustress_mean             =   6.0390492433383E-03
(PID.TID 0000.0001) %MON exf_ustress_sd               =   6.9160983145918E-02
(PID.TID 0000.0001) %MON exf_ustress_del2             =   3.6924952855180E-05
(PID.TID 0000.0001) %MON exf_vstress_max              =   7.3777814140913E-01
(PID.TID 0000.0001) %MON exf_vstress_min              =  -5.9564202348687E-01
(PID.TID 0000.0001) %MON exf_vstress_mean             =  -6.2150175251965E-03
(PID.TID 0000.0001) %MON exf_vstress_sd               =   8.1976381293709E-02
(PID.TID 0000.0001) %MON exf_vstress_del2             =   4.2465295601258E-05
(PID.TID 0000.0001) %MON exf_hflux_max                =   1.0124052922230E+03
(PID.TID 0000.0001) %MON exf_hflux_min                =  -2.5589638244338E+02
(PID.TID 0000.0001) %MON exf_hflux_mean               =  -1.1306902938739E+01
(PID.TID 0000.0001) %MON exf_hflux_sd                 =   1.5775020476892E+02
(PID.TID 0000.0001) %MON exf_hflux_del2               =   3.0676965009962E-01
(PID.TID 0000.0001) %MON exf_sflux_max                =   1.8151263100727E-07
(PID.TID 0000.0001) %MON exf_sflux_min                =  -2.1935326777510E-06
(PID.TID 0000.0001) %MON exf_sflux_mean               =  -1.7591614698691E-09
(PID.TID 0000.0001) %MON exf_sflux_sd                 =   4.4795510759225E-08
(PID.TID 0000.0001) %MON exf_sflux_del2               =   5.2557589686286E-11
(PID.TID 0000.0001) %MON exf_uwind_max                =   1.9486937358010E+01
(PID.TID 0000.0001) %MON exf_uwind_min                =  -1.6299850577329E+01
(PID.TID 0000.0001) %MON exf_uwind_mean               =   3.6150486977946E-01
(PID.TID 0000.0001) %MON exf_uwind_sd                 =   4.5313163823916E+00
(PID.TID 0000.0001) %MON exf_uwind_del2               =   1.3152829656102E-03
(PID.TID 0000.0001) %MON exf_vwind_max                =   1.7336334821750E+01
(PID.TID 0000.0001) %MON exf_vwind_min                =  -1.6010792956044E+01
(PID.TID 0000.0001) %MON exf_vwind_mean               =  -5.7239547184802E-01
(PID.TID 0000.0001) %MON exf_vwind_sd                 =   5.1620504081413E+00
(PID.TID 0000.0001) %MON exf_vwind_del2               =   1.2954287069936E-03
(PID.TID 0000.0001) %MON exf_wspeed_max               =   2.2695614720096E+01
(PID.TID 0000.0001) %MON exf_wspeed_min               =   1.6181805670211E-02
(PID.TID 0000.0001) %MON exf_wspeed_mean              =   6.1931199523962E+00
(PID.TID 0000.0001) %MON exf_wspeed_sd                =   3.0468311695632E+00
(PID.TID 0000.0001) %MON exf_wspeed_del2              =   9.8964143748481E-03
(PID.TID 0000.0001) %MON exf_atemp_max                =   3.0214219658943E+02
(PID.TID 0000.0001) %MON exf_atemp_min                =   2.2874749445748E+02
(PID.TID 0000.0001) %MON exf_atemp_mean               =   2.8894169684163E+02
(PID.TID 0000.0001) %MON exf_atemp_sd                 =   1.2335422524834E+01
(PID.TID 0000.0001) %MON exf_atemp_del2               =   2.6799419661085E-02
(PID.TID 0000.0001) %MON exf_aqh_max                  =   1.9558399858627E-02
(PID.TID 0000.0001) %MON exf_aqh_min                  =  -1.6938272959960E-04
(PID.TID 0000.0001) %MON exf_aqh_mean                 =   1.0852775148810E-02
(PID.TID 0000.0001) %MON exf_aqh_sd                   =   5.2872206082251E-03
(PID.TID 0000.0001) %MON exf_aqh_del2                 =   1.4428924291636E-05
(PID.TID 0000.0001) %MON exf_lwflux_max               =   1.4828126125454E+02
(PID.TID 0000.0001) %MON exf_lwflux_min               =   2.0303187950907E+01
(PID.TID 0000.0001) %MON exf_lwflux_mean              =   5.8861125017453E+01
(PID.TID 0000.0001) %MON exf_lwflux_sd                =   1.7477968455857E+01
(PID.TID 0000.0001) %MON exf_lwflux_del2              =   9.4150373982772E-02
(PID.TID 0000.0001) %MON exf_evap_max                 =   2.2410433443030E-07
(PID.TID 0000.0001) %MON exf_evap_min                 =  -2.5886204528265E-08
(PID.TID 0000.0001) %MON exf_evap_mean                =   3.6623732645642E-08
(PID.TID 0000.0001) %MON exf_evap_sd                  =   2.5581585891134E-08
(PID.TID 0000.0001) %MON exf_evap_del2                =   5.6560495581445E-11
(PID.TID 0000.0001) %MON exf_precip_max               =   1.8641147281375E-07
(PID.TID 0000.0001) %MON exf_precip_min               =   3.0501375227415E-10
(PID.TID 0000.0001) %MON exf_precip_mean              =   3.5688550895045E-08
(PID.TID 0000.0001) %MON exf_precip_sd                =   2.9503588349413E-08
(PID.TID 0000.0001) %MON exf_precip_del2              =   6.2590948780529E-11
(PID.TID 0000.0001) %MON exf_swflux_max               =  -0.0000000000000E+00
(PID.TID 0000.0001) %MON exf_swflux_min               =  -3.1721485922290E+02
(PID.TID 0000.0001) %MON exf_swflux_mean              =  -1.8677305866349E+02
(PID.TID 0000.0001) %MON exf_swflux_sd                =   8.0820601362220E+01
(PID.TID 0000.0001) %MON exf_swflux_del2              =   2.8036054070956E-01
(PID.TID 0000.0001) %MON exf_swdown_max               =   3.3963047026006E+02
(PID.TID 0000.0001) %MON exf_swdown_min               =   0.0000000000000E+00
(PID.TID 0000.0001) %MON exf_swdown_mean              =   1.9997115488596E+02
(PID.TID 0000.0001) %MON exf_swdown_sd                =   8.6531693107302E+01
(PID.TID 0000.0001) %MON exf_swdown_del2              =   3.0017188512801E-01
(PID.TID 0000.0001) %MON exf_lwdown_max               =   4.3395802534543E+02
(PID.TID 0000.0001) %MON exf_lwdown_min               =   1.6888834914746E+02
(PID.TID 0000.0001) %MON exf_lwdown_mean              =   3.5379501562352E+02
(PID.TID 0000.0001) %MON exf_lwdown_sd                =   5.7189792985197E+01
(PID.TID 0000.0001) %MON exf_lwdown_del2              =   4.7304190748005E-01
(PID.TID 0000.0001) %MON exf_runoff_max               =   2.0961699823811E-06
(PID.TID 0000.0001) %MON exf_runoff_min               =   0.0000000000000E+00
(PID.TID 0000.0001) %MON exf_runoff_mean              =   2.6943432204653E-09
(PID.TID 0000.0001) %MON exf_runoff_sd                =   2.4564231167080E-08
(PID.TID 0000.0001) %MON exf_runoff_del2              =   2.0332449988519E-11
(PID.TID 0000.0001) %MON exf_climsss_max              =   4.0693208099693E+01
(PID.TID 0000.0001) %MON exf_climsss_min              =   2.0898626694115E+01
(PID.TID 0000.0001) %MON exf_climsss_mean             =   3.4697145884732E+01
(PID.TID 0000.0001) %MON exf_climsss_sd               =   1.1476239331884E+00
(PID.TID 0000.0001) %MON exf_climsss_del2             =   3.2050537029131E-04
(PID.TID 0000.0001) // =======================================================
(PID.TID 0000.0001) // End MONITOR EXF statistics
(PID.TID 0000.0001) // =======================================================
 cg2d: Sum(rhs),rhsMax =  -1.07163930097040E+00  1.18154306531811E+00
(PID.TID 0000.0001)      cg2d_init_res =   8.79619305093942E-01
(PID.TID 0000.0001)      cg2d_iters(min,last) =      -1     131
(PID.TID 0000.0001)      cg2d_last_res =   6.63002906235179E-06
(PID.TID 0000.0001) // =======================================================
(PID.TID 0000.0001) // Begin MONITOR dynamic field statistics
(PID.TID 0000.0001) // =======================================================
(PID.TID 0000.0001) %MON time_tsnumber                =                     8
(PID.TID 0000.0001) %MON time_secondsf                =   2.8800000000000E+04
(PID.TID 0000.0001) %MON dynstat_eta_max              =   1.1423744049141E+00
(PID.TID 0000.0001) %MON dynstat_eta_min              =  -3.2430416663015E+00
(PID.TID 0000.0001) %MON dynstat_eta_mean             =   5.6954813235566E-04
(PID.TID 0000.0001) %MON dynstat_eta_sd               =   4.0316035322115E-01
(PID.TID 0000.0001) %MON dynstat_eta_del2             =   1.6539532502284E-04
(PID.TID 0000.0001) %MON dynstat_uvel_max             =   7.0948083043173E-01
(PID.TID 0000.0001) %MON dynstat_uvel_min             =  -7.6424174881937E-01
(PID.TID 0000.0001) %MON dynstat_uvel_mean            =  -3.9279764720371E-03
(PID.TID 0000.0001) %MON dynstat_uvel_sd              =   2.2802479258554E-02
(PID.TID 0000.0001) %MON dynstat_uvel_del2            =   1.0184587451165E-05
(PID.TID 0000.0001) %MON dynstat_vvel_max             =   7.4401972712825E-01
(PID.TID 0000.0001) %MON dynstat_vvel_min             =  -6.8645037530306E-01
(PID.TID 0000.0001) %MON dynstat_vvel_mean            =  -4.3249516803573E-03
(PID.TID 0000.0001) %MON dynstat_vvel_sd              =   2.1751651095314E-02
(PID.TID 0000.0001) %MON dynstat_vvel_del2            =   9.8592849334184E-06
(PID.TID 0000.0001) %MON dynstat_wvel_max             =   8.3231182460938E-03
(PID.TID 0000.0001) %MON dynstat_wvel_min             =  -7.5252221930209E-03
(PID.TID 0000.0001) %MON dynstat_wvel_mean            =   2.4785195958656E-09
(PID.TID 0000.0001) %MON dynstat_wvel_sd              =   9.5980770516792E-05
(PID.TID 0000.0001) %MON dynstat_wvel_del2            =   1.0926356249528E-07
(PID.TID 0000.0001) %MON dynstat_theta_max            =   3.1190755067681E+01
(PID.TID 0000.0001) %MON dynstat_theta_min            =  -2.0996013005193E+00
(PID.TID 0000.0001) %MON dynstat_theta_mean           =   3.5920838144974E+00
(PID.TID 0000.0001) %MON dynstat_theta_sd             =   4.4366772148340E+00
(PID.TID 0000.0001) %MON dynstat_theta_del2           =   7.9368749783911E-05
(PID.TID 0000.0001) %MON dynstat_salt_max             =   4.0684631335866E+01
(PID.TID 0000.0001) %MON dynstat_salt_min             =   2.0467138134827E+01
(PID.TID 0000.0001) %MON dynstat_salt_mean            =   3.4725607471389E+01
(PID.TID 0000.0001) %MON dynstat_salt_sd              =   3.8185534636823E-01
(PID.TID 0000.0001) %MON dynstat_salt_del2            =   2.0803896136597E-05
(PID.TID 0000.0001) %MON forcing_qnet_max             =   1.2929052691131E+03
(PID.TID 0000.0001) %MON forcing_qnet_min             =  -2.5589638244338E+02
(PID.TID 0000.0001) %MON forcing_qnet_mean            =  -1.6512291409249E+01
(PID.TID 0000.0001) %MON forcing_qnet_sd              =   1.3591356643914E+02
(PID.TID 0000.0001) %MON forcing_qnet_del2            =   2.0644485632510E-01
(PID.TID 0000.0001) %MON forcing_qsw_max              =   0.0000000000000E+00
(PID.TID 0000.0001) %MON forcing_qsw_min              =  -3.1721485922290E+02
(PID.TID 0000.0001) %MON forcing_qsw_mean             =  -1.8417316192677E+02
(PID.TID 0000.0001) %MON forcing_qsw_sd               =   8.1261774969109E+01
(PID.TID 0000.0001) %MON forcing_qsw_del2             =   4.1521177431463E-02
(PID.TID 0000.0001) %MON forcing_empmr_max            =   2.1834880748073E-03
(PID.TID 0000.0001) %MON forcing_empmr_min            =  -3.0686889374843E-03
(PID.TID 0000.0001) %MON forcing_empmr_mean           =  -1.9099013880380E-05
(PID.TID 0000.0001) %MON forcing_empmr_sd             =   1.5217401387260E-04
(PID.TID 0000.0001) %MON forcing_empmr_del2           =   6.1168936059826E-07
(PID.TID 0000.0001) %MON forcing_fu_max               =   1.0924890831426E+00
(PID.TID 0000.0001) %MON forcing_fu_min               =  -6.3041609833235E-01
(PID.TID 0000.0001) %MON forcing_fu_mean              =   6.0050536051244E-03
(PID.TID 0000.0001) %MON forcing_fu_sd                =   6.9781684124419E-02
(PID.TID 0000.0001) %MON forcing_fu_del2              =   4.1372587004791E-05
(PID.TID 0000.0001) %MON forcing_fv_max               =   7.5522192059010E-01
(PID.TID 0000.0001) %MON forcing_fv_min               =  -5.9210423054699E-01
(PID.TID 0000.0001) %MON forcing_fv_mean              =  -6.0845930690300E-03
(PID.TID 0000.0001) %MON forcing_fv_sd                =   8.2167341580302E-02
(PID.TID 0000.0001) %MON forcing_fv_del2              =   4.2289402968212E-05
(PID.TID 0000.0001) %MON trAdv_CFL_u_max              =   8.7271265332008E-02
(PID.TID 0000.0001) %MON trAdv_CFL_v_max              =   9.2780430894470E-02
(PID.TID 0000.0001) %MON trAdv_CFL_w_max              =   3.1286172811301E-01
(PID.TID 0000.0001) %MON advcfl_uvel_max              =   4.9056308998742E-02
(PID.TID 0000.0001) %MON advcfl_vvel_max              =   5.4680600683147E-02
(PID.TID 0000.0001) %MON advcfl_wvel_max              =   3.4027759132001E-01
(PID.TID 0000.0001) %MON advcfl_W_hf_max              =   3.4361422481149E-01
(PID.TID 0000.0001) %MON pe_b_mean                    =   1.5228883210974E-04
(PID.TID 0000.0001) %MON ke_max                       =   3.3881769238969E-01
(PID.TID 0000.0001) %MON ke_mean                      =   4.9530970603763E-04
(PID.TID 0000.0001) %MON ke_vol                       =   1.3349980569234E+18
(PID.TID 0000.0001) %MON vort_r_min                   =  -2.2704623430256E-05
(PID.TID 0000.0001) %MON vort_r_max                   =   2.0989614626103E-05
(PID.TID 0000.0001) %MON vort_a_mean                  =  -1.9727864647440E-05
(PID.TID 0000.0001) %MON vort_a_sd                    =   7.4541000835023E-05
(PID.TID 0000.0001) %MON vort_p_mean                  =  -2.1760526261434E-05
(PID.TID 0000.0001) %MON vort_p_sd                    =   9.7228397939195E-05
(PID.TID 0000.0001) %MON surfExpan_theta_mean         =   7.6872334523569E-06
(PID.TID 0000.0001) %MON surfExpan_salt_mean          =   6.3278903076638E-07
(PID.TID 0000.0001) // =======================================================
(PID.TID 0000.0001) // End MONITOR dynamic field statistics
(PID.TID 0000.0001) // =======================================================
(PID.TID 0000.0001) // =======================================================
(PID.TID 0000.0001) // Begin MONITOR SEAICE statistics
(PID.TID 0000.0001) // =======================================================
(PID.TID 0000.0001) %MON seaice_tsnumber              =                     8
(PID.TID 0000.0001) %MON seaice_time_sec              =   2.8800000000000E+04
(PID.TID 0000.0001) %MON seaice_uice_max              =   4.0000000000000E-01
(PID.TID 0000.0001) %MON seaice_uice_min              =  -4.0000000000000E-01
(PID.TID 0000.0001) %MON seaice_uice_mean             =   8.2472961010053E-03
(PID.TID 0000.0001) %MON seaice_uice_sd               =   1.5679207384468E-01
(PID.TID 0000.0001) %MON seaice_uice_del2             =   9.9959723884241E-05
(PID.TID 0000.0001) %MON seaice_vice_max              =   4.0000000000000E-01
(PID.TID 0000.0001) %MON seaice_vice_min              =  -4.0000000000000E-01
(PID.TID 0000.0001) %MON seaice_vice_mean             =  -1.6324083857105E-02
(PID.TID 0000.0001) %MON seaice_vice_sd               =   1.6744168135454E-01
(PID.TID 0000.0001) %MON seaice_vice_del2             =   1.0136905154269E-04
(PID.TID 0000.0001) %MON seaice_area_max              =   9.7000000000000E-01
(PID.TID 0000.0001) %MON seaice_area_min              =   0.0000000000000E+00
(PID.TID 0000.0001) %MON seaice_area_mean             =   4.4399681187247E-02
(PID.TID 0000.0001) %MON seaice_area_sd               =   1.9099251637105E-01
(PID.TID 0000.0001) %MON seaice_area_del2             =   2.3408725409458E-04
(PID.TID 0000.0001) %MON seaice_heff_max              =   2.8259266841298E+00
(PID.TID 0000.0001) %MON seaice_heff_min              =   0.0000000000000E+00
(PID.TID 0000.0001) %MON seaice_heff_mean             =   4.4285203782921E-02
(PID.TID 0000.0001) %MON seaice_heff_sd               =   2.2443908024707E-01
(PID.TID 0000.0001) %MON seaice_heff_del2             =   1.6421982561711E-04
(PID.TID 0000.0001) %MON seaice_hsnow_max             =   7.7927940643434E-01
(PID.TID 0000.0001) %MON seaice_hsnow_min             =  -5.4210108624275E-20
(PID.TID 0000.0001) %MON seaice_hsnow_mean            =   6.4561954001976E-03
(PID.TID 0000.0001) %MON seaice_hsnow_sd              =   3.5079865178436E-02
(PID.TID 0000.0001) %MON seaice_hsnow_del2            =   4.8953510046117E-05
(PID.TID 0000.0001) // =======================================================
(PID.TID 0000.0001) // End MONITOR SEAICE statistics
(PID.TID 0000.0001) // =======================================================
(PID.TID 0000.0001) %CHECKPOINT         8 ckptA
(PID.TID 0000.0001) 
(PID.TID 0000.0001) == cost_profiles: begin ==
(PID.TID 0000.0001) == cost_profiles: end   ==
(PID.TID 0000.0001) 
(PID.TID 0000.0001)  --> f_gencost = 0.116966764041153D+05 1
(PID.TID 0000.0001)  --> f_gencost = 0.178494336630211D+05 2
(PID.TID 0000.0001)  --> f_genarr3d = 0.000000000000000D+00 1
(PID.TID 0000.0001)  --> f_genarr3d = 0.000000000000000D+00 2
(PID.TID 0000.0001)  --> f_genarr3d = 0.000000000000000D+00 3
(PID.TID 0000.0001)  --> fc               = 0.295461100671364D+05
(PID.TID 0000.0001)   early fc =  0.000000000000000D+00
(PID.TID 0000.0001)   local fc =  0.111803527416655D+04
(PID.TID 0000.0001)  global fc =  0.295461100671364D+05
(PID.TID 0000.0001)   Seconds in section "ALL                    [THE_MODEL_MAIN]":
(PID.TID 0000.0001)           User time:   173.52026906237006
(PID.TID 0000.0001)         System time:   12.111337155103683
(PID.TID 0000.0001)     Wall clock time:   190.94166302680969
(PID.TID 0000.0001)          No. starts:           1
(PID.TID 0000.0001)           No. stops:           1
(PID.TID 0000.0001)   Seconds in section "INITIALISE_FIXED       [THE_MODEL_MAIN]":
(PID.TID 0000.0001)           User time:   4.5002089776098728
(PID.TID 0000.0001)         System time:   2.4259709417819977
(PID.TID 0000.0001)     Wall clock time:   7.2815248966217041
(PID.TID 0000.0001)          No. starts:           1
(PID.TID 0000.0001)           No. stops:           1
(PID.TID 0000.0001)   Seconds in section "THE_MAIN_LOOP          [THE_MODEL_MAIN]":
(PID.TID 0000.0001)           User time:   169.02000522613525
(PID.TID 0000.0001)         System time:   9.6853058338165283
(PID.TID 0000.0001)     Wall clock time:   183.66003012657166
(PID.TID 0000.0001)          No. starts:           1
(PID.TID 0000.0001)           No. stops:           1
(PID.TID 0000.0001)   Seconds in section "INITIALISE_VARIA    [THE_MAIN_LOOP]":
(PID.TID 0000.0001)           User time:   11.213326930999756
(PID.TID 0000.0001)         System time:   4.0189146995544434
(PID.TID 0000.0001)     Wall clock time:   15.416032791137695
(PID.TID 0000.0001)          No. starts:           1
(PID.TID 0000.0001)           No. stops:           1
(PID.TID 0000.0001)   Seconds in section "MAIN LOOP           [THE_MAIN_LOOP]":
(PID.TID 0000.0001)           User time:   157.80664062500000
(PID.TID 0000.0001)         System time:   5.6663622856140137
(PID.TID 0000.0001)     Wall clock time:   168.24393415451050
(PID.TID 0000.0001)          No. starts:           1
(PID.TID 0000.0001)           No. stops:           1
(PID.TID 0000.0001)   Seconds in section "COST_AVERAGESFIELDS [MAIN_DO_LOOP]":
(PID.TID 0000.0001)           User time:   1.8532695770263672
(PID.TID 0000.0001)         System time:   1.1106491088867188E-002
(PID.TID 0000.0001)     Wall clock time:   1.8919718265533447
(PID.TID 0000.0001)          No. starts:           8
(PID.TID 0000.0001)           No. stops:           8
(PID.TID 0000.0001)   Seconds in section "PROFILES_INLOOP    [MAIN_DO_LOOP]":
(PID.TID 0000.0001)           User time:   5.5847167968750000E-003
(PID.TID 0000.0001)         System time:   2.6845932006835938E-004
(PID.TID 0000.0001)     Wall clock time:   5.8588981628417969E-003
(PID.TID 0000.0001)          No. starts:           8
(PID.TID 0000.0001)           No. stops:           8
(PID.TID 0000.0001)   Seconds in section "MAIN_DO_LOOP        [THE_MAIN_LOOP]":
(PID.TID 0000.0001)           User time:   152.04429244995117
(PID.TID 0000.0001)         System time:   4.0123305320739746
(PID.TID 0000.0001)     Wall clock time:   157.65521168708801
(PID.TID 0000.0001)          No. starts:           8
(PID.TID 0000.0001)           No. stops:           8
(PID.TID 0000.0001)   Seconds in section "FORWARD_STEP        [MAIN_DO_LOOP]":
(PID.TID 0000.0001)           User time:   152.04415321350098
(PID.TID 0000.0001)         System time:   4.0123252868652344
(PID.TID 0000.0001)     Wall clock time:   157.65506815910339
(PID.TID 0000.0001)          No. starts:           8
(PID.TID 0000.0001)           No. stops:           8
(PID.TID 0000.0001)   Seconds in section "UPDATE_R_STAR       [FORWARD_STEP]":
(PID.TID 0000.0001)           User time:   2.7697906494140625
(PID.TID 0000.0001)         System time:   1.5830993652343750E-004
(PID.TID 0000.0001)     Wall clock time:   2.7728245258331299
(PID.TID 0000.0001)          No. starts:          16
(PID.TID 0000.0001)           No. stops:          16
(PID.TID 0000.0001)   Seconds in section "DO_STATEVARS_DIAGS  [FORWARD_STEP]":
(PID.TID 0000.0001)           User time:   1.4251537322998047
(PID.TID 0000.0001)         System time:   5.4712295532226562E-002
(PID.TID 0000.0001)     Wall clock time:   1.5234668254852295
(PID.TID 0000.0001)          No. starts:          24
(PID.TID 0000.0001)           No. stops:          24
(PID.TID 0000.0001)   Seconds in section "LOAD_FIELDS_DRIVER  [FORWARD_STEP]":
(PID.TID 0000.0001)           User time:   1.1679973602294922
(PID.TID 0000.0001)         System time:   5.7645797729492188E-002
(PID.TID 0000.0001)     Wall clock time:   1.4533376693725586
(PID.TID 0000.0001)          No. starts:           8
(PID.TID 0000.0001)           No. stops:           8
(PID.TID 0000.0001)   Seconds in section "EXF_GETFORCING     [LOAD_FLDS_DRIVER]":
(PID.TID 0000.0001)           User time:   1.1674976348876953
(PID.TID 0000.0001)         System time:   5.7632923126220703E-002
(PID.TID 0000.0001)     Wall clock time:   1.4528529644012451
(PID.TID 0000.0001)          No. starts:           8
(PID.TID 0000.0001)           No. stops:           8
(PID.TID 0000.0001)   Seconds in section "EXTERNAL_FLDS_LOAD [LOAD_FLDS_DRIVER]":
(PID.TID 0000.0001)           User time:   9.3460083007812500E-005
(PID.TID 0000.0001)         System time:   3.8146972656250000E-006
(PID.TID 0000.0001)     Wall clock time:   9.9420547485351562E-005
(PID.TID 0000.0001)          No. starts:           8
(PID.TID 0000.0001)           No. stops:           8
(PID.TID 0000.0001)   Seconds in section "CTRL_MAP_FORCING  [FORWARD_STEP]":
(PID.TID 0000.0001)           User time:  0.15634918212890625
(PID.TID 0000.0001)         System time:   1.0972023010253906E-002
(PID.TID 0000.0001)     Wall clock time:  0.17174077033996582
(PID.TID 0000.0001)          No. starts:           8
(PID.TID 0000.0001)           No. stops:           8
(PID.TID 0000.0001)   Seconds in section "DO_ATMOSPHERIC_PHYS [FORWARD_STEP]":
(PID.TID 0000.0001)           User time:  0.10628890991210938
(PID.TID 0000.0001)         System time:   2.6988983154296875E-004
(PID.TID 0000.0001)     Wall clock time:  0.10662603378295898
(PID.TID 0000.0001)          No. starts:           8
(PID.TID 0000.0001)           No. stops:           8
(PID.TID 0000.0001)   Seconds in section "DO_OCEANIC_PHYS     [FORWARD_STEP]":
(PID.TID 0000.0001)           User time:   28.639062881469727
(PID.TID 0000.0001)         System time:  0.20505666732788086
(PID.TID 0000.0001)     Wall clock time:   29.418332576751709
(PID.TID 0000.0001)          No. starts:           8
(PID.TID 0000.0001)           No. stops:           8
(PID.TID 0000.0001)   Seconds in section "SEAICE_MODEL    [DO_OCEANIC_PHYS]":
(PID.TID 0000.0001)           User time:   7.7056198120117188
(PID.TID 0000.0001)         System time:   5.2281379699707031E-002
(PID.TID 0000.0001)     Wall clock time:   7.8048000335693359
(PID.TID 0000.0001)          No. starts:           8
(PID.TID 0000.0001)           No. stops:           8
(PID.TID 0000.0001)   Seconds in section "SEAICE_DYNSOLVER   [SEAICE_MODEL]":
(PID.TID 0000.0001)           User time:   7.0710582733154297
(PID.TID 0000.0001)         System time:   4.4823169708251953E-002
(PID.TID 0000.0001)     Wall clock time:   7.1406469345092773
(PID.TID 0000.0001)          No. starts:           8
(PID.TID 0000.0001)           No. stops:           8
(PID.TID 0000.0001)   Seconds in section "GGL90_CALC [DO_OCEANIC_PHYS]":
(PID.TID 0000.0001)           User time:   6.1297397613525391
(PID.TID 0000.0001)         System time:   7.5087547302246094E-002
(PID.TID 0000.0001)     Wall clock time:   6.6881949901580811
(PID.TID 0000.0001)          No. starts:          96
(PID.TID 0000.0001)           No. stops:          96
(PID.TID 0000.0001)   Seconds in section "DYNAMICS            [FORWARD_STEP]":
(PID.TID 0000.0001)           User time:   28.772338867187500
(PID.TID 0000.0001)         System time:   4.5954227447509766E-002
(PID.TID 0000.0001)     Wall clock time:   28.899775266647339
(PID.TID 0000.0001)          No. starts:           8
(PID.TID 0000.0001)           No. stops:           8
(PID.TID 0000.0001)   Seconds in section "UPDATE_CG2D         [FORWARD_STEP]":
(PID.TID 0000.0001)           User time:   1.2260723114013672
(PID.TID 0000.0001)         System time:   3.5467147827148438E-003
(PID.TID 0000.0001)     Wall clock time:   1.2328228950500488
(PID.TID 0000.0001)          No. starts:           8
(PID.TID 0000.0001)           No. stops:           8
(PID.TID 0000.0001)   Seconds in section "SOLVE_FOR_PRESSURE  [FORWARD_STEP]":
(PID.TID 0000.0001)           User time:   4.3197345733642578
(PID.TID 0000.0001)         System time:   1.5244483947753906E-002
(PID.TID 0000.0001)     Wall clock time:   4.3614666461944580
(PID.TID 0000.0001)          No. starts:           8
(PID.TID 0000.0001)           No. stops:           8
(PID.TID 0000.0001)   Seconds in section "MOM_CORRECTION_STEP [FORWARD_STEP]":
(PID.TID 0000.0001)           User time:  0.58784103393554688
(PID.TID 0000.0001)         System time:   0.0000000000000000
(PID.TID 0000.0001)     Wall clock time:  0.58785700798034668
(PID.TID 0000.0001)          No. starts:           8
(PID.TID 0000.0001)           No. stops:           8
(PID.TID 0000.0001)   Seconds in section "INTEGR_CONTINUITY   [FORWARD_STEP]":
(PID.TID 0000.0001)           User time:   1.3104114532470703
(PID.TID 0000.0001)         System time:   0.0000000000000000
(PID.TID 0000.0001)     Wall clock time:   1.3135838508605957
(PID.TID 0000.0001)          No. starts:           8
(PID.TID 0000.0001)           No. stops:           8
(PID.TID 0000.0001)   Seconds in section "CALC_R_STAR         [FORWARD_STEP]":
(PID.TID 0000.0001)           User time:   9.3795776367187500E-002
(PID.TID 0000.0001)         System time:   0.0000000000000000
(PID.TID 0000.0001)     Wall clock time:   9.3817472457885742E-002
(PID.TID 0000.0001)          No. starts:           8
(PID.TID 0000.0001)           No. stops:           8
(PID.TID 0000.0001)   Seconds in section "BLOCKING_EXCHANGES  [FORWARD_STEP]":
(PID.TID 0000.0001)           User time:   1.9169406890869141
(PID.TID 0000.0001)         System time:   4.4498443603515625E-002
(PID.TID 0000.0001)     Wall clock time:   1.9647758007049561
(PID.TID 0000.0001)          No. starts:          16
(PID.TID 0000.0001)           No. stops:          16
(PID.TID 0000.0001)   Seconds in section "THERMODYNAMICS      [FORWARD_STEP]":
(PID.TID 0000.0001)           User time:   31.039337158203125
(PID.TID 0000.0001)         System time:   6.4766407012939453E-002
(PID.TID 0000.0001)     Wall clock time:   31.289303779602051
(PID.TID 0000.0001)          No. starts:           8
(PID.TID 0000.0001)           No. stops:           8
(PID.TID 0000.0001)   Seconds in section "TRC_CORRECTION_STEP [FORWARD_STEP]":
(PID.TID 0000.0001)           User time:   8.3923339843750000E-005
(PID.TID 0000.0001)         System time:   1.9073486328125000E-006
(PID.TID 0000.0001)     Wall clock time:   9.0599060058593750E-005
(PID.TID 0000.0001)          No. starts:           8
(PID.TID 0000.0001)           No. stops:           8
(PID.TID 0000.0001)   Seconds in section "MONITOR             [FORWARD_STEP]":
(PID.TID 0000.0001)           User time:   6.3383331298828125
(PID.TID 0000.0001)         System time:   4.7054290771484375E-003
(PID.TID 0000.0001)     Wall clock time:   6.3559491634368896
(PID.TID 0000.0001)          No. starts:           8
(PID.TID 0000.0001)           No. stops:           8
(PID.TID 0000.0001)   Seconds in section "COST_TILE           [FORWARD_STEP]":
(PID.TID 0000.0001)           User time:   8.3923339843750000E-005
(PID.TID 0000.0001)         System time:   5.2452087402343750E-006
(PID.TID 0000.0001)     Wall clock time:   8.2492828369140625E-005
(PID.TID 0000.0001)          No. starts:           8
(PID.TID 0000.0001)           No. stops:           8
(PID.TID 0000.0001)   Seconds in section "DO_THE_MODEL_IO     [FORWARD_STEP]":
(PID.TID 0000.0001)           User time:   6.3504219055175781
(PID.TID 0000.0001)         System time:   1.9460525512695312
(PID.TID 0000.0001)     Wall clock time:   8.3870100975036621
(PID.TID 0000.0001)          No. starts:           8
(PID.TID 0000.0001)           No. stops:           8
(PID.TID 0000.0001)   Seconds in section "DO_WRITE_PICKUP     [FORWARD_STEP]":
(PID.TID 0000.0001)           User time:   2.3364181518554688
(PID.TID 0000.0001)         System time:   1.5584478378295898
(PID.TID 0000.0001)     Wall clock time:   4.1768958568572998
(PID.TID 0000.0001)          No. starts:           8
(PID.TID 0000.0001)           No. stops:           8
(PID.TID 0000.0001)   Seconds in section "COST_AVERAGESFIELDS [THE_MAIN_LOOP]":
(PID.TID 0000.0001)           User time:  0.65492248535156250
(PID.TID 0000.0001)         System time:  0.19482421875000000
(PID.TID 0000.0001)     Wall clock time:   1.2437920570373535
(PID.TID 0000.0001)          No. starts:           1
(PID.TID 0000.0001)           No. stops:           1
(PID.TID 0000.0001)   Seconds in section "PROFILES_INLOOP    [THE_MAIN_LOOP]":
(PID.TID 0000.0001)           User time:   6.2561035156250000E-004
(PID.TID 0000.0001)         System time:   4.0054321289062500E-005
(PID.TID 0000.0001)     Wall clock time:   6.7400932312011719E-004
(PID.TID 0000.0001)          No. starts:           1
(PID.TID 0000.0001)           No. stops:           1
(PID.TID 0000.0001)   Seconds in section "ECCO_COST_DRIVER   [THE_MAIN_LOOP]":
(PID.TID 0000.0001)           User time:   3.2443695068359375
(PID.TID 0000.0001)         System time:   1.4460229873657227
(PID.TID 0000.0001)     Wall clock time:   7.4406640529632568
(PID.TID 0000.0001)          No. starts:           1
(PID.TID 0000.0001)           No. stops:           1
(PID.TID 0000.0001)   Seconds in section "COST_GENCOST_ALL    [ECCO SPIN-DOWN]":
(PID.TID 0000.0001)           User time:   2.4296112060546875
(PID.TID 0000.0001)         System time:   1.2420768737792969
(PID.TID 0000.0001)     Wall clock time:   6.2908709049224854
(PID.TID 0000.0001)          No. starts:           1
(PID.TID 0000.0001)           No. stops:           1
(PID.TID 0000.0001)   Seconds in section "CTRL_COST_DRIVER [ECCO SPIN-DOWN]":
(PID.TID 0000.0001)           User time:  0.81468200683593750
(PID.TID 0000.0001)         System time:  0.20394325256347656
(PID.TID 0000.0001)     Wall clock time:   1.1497368812561035
(PID.TID 0000.0001)          No. starts:           1
(PID.TID 0000.0001)           No. stops:           1
(PID.TID 0000.0001)   Seconds in section "COST_FINAL         [ADJOINT SPIN-DOWN]":
(PID.TID 0000.0001)           User time:   0.0000000000000000
(PID.TID 0000.0001)         System time:   1.7299652099609375E-003
(PID.TID 0000.0001)     Wall clock time:   2.1998882293701172E-003
(PID.TID 0000.0001)          No. starts:           1
(PID.TID 0000.0001)           No. stops:           1
(PID.TID 0000.0001) // ======================================================
(PID.TID 0000.0001) // Tile <-> Tile communication statistics
(PID.TID 0000.0001) // ======================================================
(PID.TID 0000.0001) // o Tile number: 000001
(PID.TID 0000.0001) //         No. X exchanges =              0
(PID.TID 0000.0001) //            Max. X spins =              0
(PID.TID 0000.0001) //            Min. X spins =     1000000000
(PID.TID 0000.0001) //          Total. X spins =              0
(PID.TID 0000.0001) //            Avg. X spins =       0.00E+00
(PID.TID 0000.0001) //         No. Y exchanges =              0
(PID.TID 0000.0001) //            Max. Y spins =              0
(PID.TID 0000.0001) //            Min. Y spins =     1000000000
(PID.TID 0000.0001) //          Total. Y spins =              0
(PID.TID 0000.0001) //            Avg. Y spins =       0.00E+00
(PID.TID 0000.0001) // o Tile number: 000002
(PID.TID 0000.0001) //         No. X exchanges =              0
(PID.TID 0000.0001) //            Max. X spins =              0
(PID.TID 0000.0001) //            Min. X spins =     1000000000
(PID.TID 0000.0001) //          Total. X spins =              0
(PID.TID 0000.0001) //            Avg. X spins =       0.00E+00
(PID.TID 0000.0001) //         No. Y exchanges =              0
(PID.TID 0000.0001) //            Max. Y spins =              0
(PID.TID 0000.0001) //            Min. Y spins =     1000000000
(PID.TID 0000.0001) //          Total. Y spins =              0
(PID.TID 0000.0001) //            Avg. Y spins =       0.00E+00
(PID.TID 0000.0001) // o Tile number: 000003
(PID.TID 0000.0001) //         No. X exchanges =              0
(PID.TID 0000.0001) //            Max. X spins =              0
(PID.TID 0000.0001) //            Min. X spins =     1000000000
(PID.TID 0000.0001) //          Total. X spins =              0
(PID.TID 0000.0001) //            Avg. X spins =       0.00E+00
(PID.TID 0000.0001) //         No. Y exchanges =              0
(PID.TID 0000.0001) //            Max. Y spins =              0
(PID.TID 0000.0001) //            Min. Y spins =     1000000000
(PID.TID 0000.0001) //          Total. Y spins =              0
(PID.TID 0000.0001) //            Avg. Y spins =       0.00E+00
(PID.TID 0000.0001) // o Tile number: 000004
(PID.TID 0000.0001) //         No. X exchanges =              0
(PID.TID 0000.0001) //            Max. X spins =              0
(PID.TID 0000.0001) //            Min. X spins =     1000000000
(PID.TID 0000.0001) //          Total. X spins =              0
(PID.TID 0000.0001) //            Avg. X spins =       0.00E+00
(PID.TID 0000.0001) //         No. Y exchanges =              0
(PID.TID 0000.0001) //            Max. Y spins =              0
(PID.TID 0000.0001) //            Min. Y spins =     1000000000
(PID.TID 0000.0001) //          Total. Y spins =              0
(PID.TID 0000.0001) //            Avg. Y spins =       0.00E+00
(PID.TID 0000.0001) // o Tile number: 000005
(PID.TID 0000.0001) //         No. X exchanges =              0
(PID.TID 0000.0001) //            Max. X spins =              0
(PID.TID 0000.0001) //            Min. X spins =     1000000000
(PID.TID 0000.0001) //          Total. X spins =              0
(PID.TID 0000.0001) //            Avg. X spins =       0.00E+00
(PID.TID 0000.0001) //         No. Y exchanges =              0
(PID.TID 0000.0001) //            Max. Y spins =              0
(PID.TID 0000.0001) //            Min. Y spins =     1000000000
(PID.TID 0000.0001) //          Total. Y spins =              0
(PID.TID 0000.0001) //            Avg. Y spins =       0.00E+00
(PID.TID 0000.0001) // o Tile number: 000006
(PID.TID 0000.0001) //         No. X exchanges =              0
(PID.TID 0000.0001) //            Max. X spins =              0
(PID.TID 0000.0001) //            Min. X spins =     1000000000
(PID.TID 0000.0001) //          Total. X spins =              0
(PID.TID 0000.0001) //            Avg. X spins =       0.00E+00
(PID.TID 0000.0001) //         No. Y exchanges =              0
(PID.TID 0000.0001) //            Max. Y spins =              0
(PID.TID 0000.0001) //            Min. Y spins =     1000000000
(PID.TID 0000.0001) //          Total. Y spins =              0
(PID.TID 0000.0001) //            Avg. Y spins =       0.00E+00
(PID.TID 0000.0001) // o Tile number: 000007
(PID.TID 0000.0001) //         No. X exchanges =              0
(PID.TID 0000.0001) //            Max. X spins =              0
(PID.TID 0000.0001) //            Min. X spins =     1000000000
(PID.TID 0000.0001) //          Total. X spins =              0
(PID.TID 0000.0001) //            Avg. X spins =       0.00E+00
(PID.TID 0000.0001) //         No. Y exchanges =              0
(PID.TID 0000.0001) //            Max. Y spins =              0
(PID.TID 0000.0001) //            Min. Y spins =     1000000000
(PID.TID 0000.0001) //          Total. Y spins =              0
(PID.TID 0000.0001) //            Avg. Y spins =       0.00E+00
(PID.TID 0000.0001) // o Tile number: 000008
(PID.TID 0000.0001) //         No. X exchanges =              0
(PID.TID 0000.0001) //            Max. X spins =              0
(PID.TID 0000.0001) //            Min. X spins =     1000000000
(PID.TID 0000.0001) //          Total. X spins =              0
(PID.TID 0000.0001) //            Avg. X spins =       0.00E+00
(PID.TID 0000.0001) //         No. Y exchanges =              0
(PID.TID 0000.0001) //            Max. Y spins =              0
(PID.TID 0000.0001) //            Min. Y spins =     1000000000
(PID.TID 0000.0001) //          Total. Y spins =              0
(PID.TID 0000.0001) //            Avg. Y spins =       0.00E+00
(PID.TID 0000.0001) // o Tile number: 000009
(PID.TID 0000.0001) //         No. X exchanges =              0
(PID.TID 0000.0001) //            Max. X spins =              0
(PID.TID 0000.0001) //            Min. X spins =     1000000000
(PID.TID 0000.0001) //          Total. X spins =              0
(PID.TID 0000.0001) //            Avg. X spins =       0.00E+00
(PID.TID 0000.0001) //         No. Y exchanges =              0
(PID.TID 0000.0001) //            Max. Y spins =              0
(PID.TID 0000.0001) //            Min. Y spins =     1000000000
(PID.TID 0000.0001) //          Total. Y spins =              0
(PID.TID 0000.0001) //            Avg. Y spins =       0.00E+00
(PID.TID 0000.0001) // o Tile number: 000010
(PID.TID 0000.0001) //         No. X exchanges =              0
(PID.TID 0000.0001) //            Max. X spins =              0
(PID.TID 0000.0001) //            Min. X spins =     1000000000
(PID.TID 0000.0001) //          Total. X spins =              0
(PID.TID 0000.0001) //            Avg. X spins =       0.00E+00
(PID.TID 0000.0001) //         No. Y exchanges =              0
(PID.TID 0000.0001) //            Max. Y spins =              0
(PID.TID 0000.0001) //            Min. Y spins =     1000000000
(PID.TID 0000.0001) //          Total. Y spins =              0
(PID.TID 0000.0001) //            Avg. Y spins =       0.00E+00
(PID.TID 0000.0001) // o Tile number: 000011
(PID.TID 0000.0001) //         No. X exchanges =              0
(PID.TID 0000.0001) //            Max. X spins =              0
(PID.TID 0000.0001) //            Min. X spins =     1000000000
(PID.TID 0000.0001) //          Total. X spins =              0
(PID.TID 0000.0001) //            Avg. X spins =       0.00E+00
(PID.TID 0000.0001) //         No. Y exchanges =              0
(PID.TID 0000.0001) //            Max. Y spins =              0
(PID.TID 0000.0001) //            Min. Y spins =     1000000000
(PID.TID 0000.0001) //          Total. Y spins =              0
(PID.TID 0000.0001) //            Avg. Y spins =       0.00E+00
(PID.TID 0000.0001) // o Tile number: 000012
(PID.TID 0000.0001) //         No. X exchanges =              0
(PID.TID 0000.0001) //            Max. X spins =              0
(PID.TID 0000.0001) //            Min. X spins =     1000000000
(PID.TID 0000.0001) //          Total. X spins =              0
(PID.TID 0000.0001) //            Avg. X spins =       0.00E+00
(PID.TID 0000.0001) //         No. Y exchanges =              0
(PID.TID 0000.0001) //            Max. Y spins =              0
(PID.TID 0000.0001) //            Min. Y spins =     1000000000
(PID.TID 0000.0001) //          Total. Y spins =              0
(PID.TID 0000.0001) //            Avg. Y spins =       0.00E+00
(PID.TID 0000.0001) // o Thread number: 000001
(PID.TID 0000.0001) //            No. barriers =          37144
(PID.TID 0000.0001) //      Max. barrier spins =              1
(PID.TID 0000.0001) //      Min. barrier spins =              1
(PID.TID 0000.0001) //     Total barrier spins =          37144
(PID.TID 0000.0001) //      Avg. barrier spins =       1.00E+00
PROGRAM MAIN: Execution ended Normally
