(PID.TID 0000.0001) 
(PID.TID 0000.0001) // ======================================================
(PID.TID 0000.0001) //                      MITgcm UV
(PID.TID 0000.0001) //                      =========
(PID.TID 0000.0001) // ======================================================
(PID.TID 0000.0001) // execution environment starting up...
(PID.TID 0000.0001) 
(PID.TID 0000.0001) // MITgcmUV version:  checkpoint68p
(PID.TID 0000.0001) // Build user:        jm_c
(PID.TID 0000.0001) // Build host:        villon
(PID.TID 0000.0001) // Build date:        Fri Jun  9 13:37:06 EDT 2023
(PID.TID 0000.0001) 
(PID.TID 0000.0001) // =======================================================
(PID.TID 0000.0001) // Execution Environment parameter file "eedata"
(PID.TID 0000.0001) // =======================================================
(PID.TID 0000.0001) ># Example "eedata" file
(PID.TID 0000.0001) ># Lines beginning "#" are comments
(PID.TID 0000.0001) ># nTx - No. threads per process in X
(PID.TID 0000.0001) ># nTy - No. threads per process in Y
(PID.TID 0000.0001) > &EEPARMS
(PID.TID 0000.0001) > useCubedSphereExchange=.TRUE.,
(PID.TID 0000.0001) > nTx=1,
(PID.TID 0000.0001) > nTy=1,
(PID.TID 0000.0001) > /
(PID.TID 0000.0001) ># Note: Some systems use & as the
(PID.TID 0000.0001) ># namelist terminator. Other systems
(PID.TID 0000.0001) ># use a / character (as shown here).
(PID.TID 0000.0001) 
(PID.TID 0000.0001) // =======================================================
(PID.TID 0000.0001) // Computational Grid Specification ( see files "SIZE.h" )
(PID.TID 0000.0001) //                                  ( and "eedata"       )
(PID.TID 0000.0001) // =======================================================
(PID.TID 0000.0001)      nPx =    8 ; /* No. processes in X */
(PID.TID 0000.0001)      nPy =    1 ; /* No. processes in Y */
(PID.TID 0000.0001)      nSx =   12 ; /* No. tiles in X per process */
(PID.TID 0000.0001)      nSy =    1 ; /* No. tiles in Y per process */
(PID.TID 0000.0001)      sNx =   30 ; /* Tile size in X */
(PID.TID 0000.0001)      sNy =   30 ; /* Tile size in Y */
(PID.TID 0000.0001)      OLx =    4 ; /* Tile overlap distance in X */
(PID.TID 0000.0001)      OLy =    4 ; /* Tile overlap distance in Y */
(PID.TID 0000.0001)      nTx =    1 ; /* No. threads in X per process */
(PID.TID 0000.0001)      nTy =    1 ; /* No. threads in Y per process */
(PID.TID 0000.0001)       Nr =   50 ; /* No. levels in the vertical   */
(PID.TID 0000.0001)       Nx = 2880 ; /* Total domain size in X ( = nPx*nSx*sNx ) */
(PID.TID 0000.0001)       Ny =   30 ; /* Total domain size in Y ( = nPy*nSy*sNy ) */
(PID.TID 0000.0001)   nTiles =   12 ; /* Total no. tiles per process ( = nSx*nSy ) */
(PID.TID 0000.0001)   nProcs =    8 ; /* Total no. processes ( = nPx*nPy ) */
(PID.TID 0000.0001) nThreads =    1 ; /* Total no. threads per process ( = nTx*nTy ) */
(PID.TID 0000.0001) usingMPI =    T ; /* Flag used to control whether MPI is in use */
(PID.TID 0000.0001)                   /*  note: To execute a program with MPI calls */
(PID.TID 0000.0001)                   /*  it must be launched appropriately e.g     */
(PID.TID 0000.0001)                   /*  "mpirun -np 64 ......"                    */
(PID.TID 0000.0001) useCoupler=   F ; /* Flag used to control communications with   */
(PID.TID 0000.0001)                   /*  other model components, through a coupler */
(PID.TID 0000.0001) useNest2W_parent =    F ;/* Control 2-W Nesting comm */
(PID.TID 0000.0001) useNest2W_child  =    F ;/* Control 2-W Nesting comm */
(PID.TID 0000.0001) debugMode =    F ; /* print debug msg. (sequence of S/R calls)  */
(PID.TID 0000.0001) printMapIncludesZeros=    F ; /* print zeros in Std.Output maps */
(PID.TID 0000.0001) maxLengthPrt1D=   65 /* maxLength of 1D array printed to StdOut */
(PID.TID 0000.0001) 
(PID.TID 0000.0001) ======= Starting MPI parallel Run =========
(PID.TID 0000.0001)  My Processor Name (len:  6 ) = villon
(PID.TID 0000.0001)  Located at (  0,  0) on processor grid (0:  7,0:  0)
(PID.TID 0000.0001)  Origin at  (     1,     1) on global grid (1:  2880,1:    30)
(PID.TID 0000.0001)  North neighbor = processor 0000
(PID.TID 0000.0001)  South neighbor = processor 0000
(PID.TID 0000.0001)   East neighbor = processor 0001
(PID.TID 0000.0001)   West neighbor = processor 0007
(PID.TID 0000.0001) // ======================================================
(PID.TID 0000.0001) // Mapping of tiles to threads
(PID.TID 0000.0001) // ======================================================
(PID.TID 0000.0001) // -o- Thread   1, tiles (   1:  12,   1:   1)
(PID.TID 0000.0001) 
(PID.TID 0000.0001) W2_READPARMS: opening data.exch2
(PID.TID 0000.0001)  OPEN_COPY_DATA_FILE: opening file data.exch2
(PID.TID 0000.0001) // =======================================================
(PID.TID 0000.0001) // Parameter file "data.exch2"
(PID.TID 0000.0001) // =======================================================
(PID.TID 0000.0001) ># EXCH2 Package: Wrapper-2 User Choice
(PID.TID 0000.0001) >#--------------------
(PID.TID 0000.0001) >#  preDefTopol   :: pre-defined Topology selector:
(PID.TID 0000.0001) >#                :: = 0 : topology defined from processing "data.exch2";
(PID.TID 0000.0001) >#                :: = 1 : simple, single facet topology;
(PID.TID 0000.0001) >#                :: = 2 : customized topology (w2_set_myown_facets)
(PID.TID 0000.0001) >#                :: = 3 : 6-facet Cube (3 face-dims: nRed, nGreen, nBlue).
(PID.TID 0000.0001) >#  dimsFacets    :: facet pair of dimensions (n1x,n1y, n2x,n2y ...)
(PID.TID 0000.0001) >#  facetEdgeLink :: Face-Edge connectivity map:
(PID.TID 0000.0001) >#    facetEdgeLink(i,j)=XX.1 : face(j)-edge(i) (i=1,2,3,4 <==> N,S,E,W)
(PID.TID 0000.0001) >#    is connected to Northern edge of face "XX" ; similarly,
(PID.TID 0000.0001) >#    = XX.2 : to Southern.E, XX.3 = Eastern.E, XX.4 = Western.E of face "XX"
(PID.TID 0000.0001) >#  blankList     :: List of "blank" tiles
(PID.TID 0000.0001) >#  W2_mapIO      :: global map IO selector (-1 = old type ; 0 = 1 long line in X
(PID.TID 0000.0001) >#                :: 1 = compact, mostly in Y dir)
(PID.TID 0000.0001) >#  W2_printMsg   :: option for information messages printing
(PID.TID 0000.0001) >#                :: <0 : write to log file ; =0 : minimum print ;
(PID.TID 0000.0001) >#                :: =1 : no duplicated print ; =2 : all processes do print
(PID.TID 0000.0001) >#--------------------
(PID.TID 0000.0001) > &W2_EXCH2_PARM01
(PID.TID 0000.0001) ># W2_printMsg= 0,
(PID.TID 0000.0001) >  W2_mapIO   = 1,
(PID.TID 0000.0001) >#
(PID.TID 0000.0001) >  preDefTopol=0,
(PID.TID 0000.0001) >#-- 5 facets llc_120 topology (drop facet 6 and its connection):
(PID.TID 0000.0001) >  dimsFacets(1:10) = 90, 270, 90, 270, 90, 90, 270, 90, 270, 90,
(PID.TID 0000.0001) >  facetEdgeLink(1:4,1)= 3.4, 0. , 2.4, 5.1,
(PID.TID 0000.0001) >  facetEdgeLink(1:4,2)= 3.2, 0. , 4.2, 1.3,
(PID.TID 0000.0001) >  facetEdgeLink(1:4,3)= 5.4, 2.1, 4.4, 1.1,
(PID.TID 0000.0001) >  facetEdgeLink(1:4,4)= 5.2, 2.3, 0. , 3.3,
(PID.TID 0000.0001) >  facetEdgeLink(1:4,5)= 1.4, 4.1, 0. , 3.1,
(PID.TID 0000.0001) >#-- full 6 facets llc_120 topology (equivalent to default preDefTopol=3):
(PID.TID 0000.0001) ># dimsFacets(1:12) = 120, 360, 120, 360, 120, 120, 360, 120, 360, 120, 120, 120,
(PID.TID 0000.0001) ># facetEdgeLink(1:4,1)= 3.4, 6.1, 2.4, 5.1,
(PID.TID 0000.0001) ># facetEdgeLink(1:4,2)= 3.2, 6.3, 4.2, 1.3,
(PID.TID 0000.0001) ># facetEdgeLink(1:4,3)= 5.4, 2.1, 4.4, 1.1,
(PID.TID 0000.0001) ># facetEdgeLink(1:4,4)= 5.2, 2.3, 6.2, 3.3,
(PID.TID 0000.0001) ># facetEdgeLink(1:4,5)= 1.4, 4.1, 6.4, 3.1,
(PID.TID 0000.0001) ># facetEdgeLink(1:4,6)= 1.2, 4.3, 2.2, 5.3,
(PID.TID 0000.0001) >#
(PID.TID 0000.0001) >#90x30   nprocs = 36
(PID.TID 0000.0001) >#  blankList(1:3)=1,10,11,
(PID.TID 0000.0001) >#30x90
(PID.TID 0000.0001) >#
(PID.TID 0000.0001) >#45x30   nprocs = 72
(PID.TID 0000.0001) >#  blankList(1:6)=1,2,19,20,21,22
(PID.TID 0000.0001) >#old:  blankList(1:8)=1,2,19,20,21,22,33,72
(PID.TID 0000.0001) >#30x45   nprocs = 68
(PID.TID 0000.0001) >#  blankList(1:10)=2,3,19,20,21,35,51,60,69,78
(PID.TID 0000.0001) >#45x45   nprocs = 48
(PID.TID 0000.0001) >#  blankList(1:4)=2,13,14,23
(PID.TID 0000.0001) >#30x30   nprocs = 96
(PID.TID 0000.0001) >  blankList(1:21)=1,2,3,5,6,28,29,30,31,32,33,49,50,52,53,72,81,90,99,108,117
(PID.TID 0000.0001) >#30x30   nprocs = 112
(PID.TID 0000.0001) ># blankList(1:5)=2,3,28,29,30
(PID.TID 0000.0001) >#15x30   nprocs = 192
(PID.TID 0000.0001) >#  blankList(1:42)=1,2,3,4,5,6,9,10,11,12,55,56,57,58,59,60,61,62,63,64,65,66,
(PID.TID 0000.0001) >#            97,98,99,100,103,104,105,106,143,144,
(PID.TID 0000.0001) >#            161,162,179,180,197,198,215,216,233,234
(PID.TID 0000.0001) >#15x15   nprocs = 360
(PID.TID 0000.0001) >#  blankList(1:108)=1,2,3,4,5,6,7,8,9,10,11,12,14,15,16,17,18,21,22,23,24,
(PID.TID 0000.0001) >#  65,71,75,76,90,95,96,101,102,109,110,111,112,113,114,115,116,117,118,119,
(PID.TID 0000.0001) >#  120,121,122,123,124,125,126,127,128,129,130,131,132,
(PID.TID 0000.0001) >#  188,189,190,193,194,195,196,199,
(PID.TID 0000.0001) >#  200,201,202,203,205,206,207,208,209,211,212,213,214,215,216,242,247,253,
(PID.TID 0000.0001) >#  267,268,269,270,287,288,305,306,323,324,341,342,359,360,362,376,377,378,
(PID.TID 0000.0001) >#  380,381,382,395,396,400,412,413,414,430,
(PID.TID 0000.0001) >#note: it seems that 8 of the followig 9 tiles could be added to 15x15 blank
(PID.TID 0000.0001) >#  list to reach 352=22*16 cores : 431 432 440 441 448 449 450 467 468
(PID.TID 0000.0001) >#
(PID.TID 0000.0001) > /
(PID.TID 0000.0001) 
(PID.TID 0000.0001) W2_READPARMS: finished reading data.exch2
(PID.TID 0000.0001) W2_useE2ioLayOut=    T ;/* T: use Exch2 glob IO map; F: use model default */
(PID.TID 0000.0001) W2_mapIO        =   1 ; /* select option for Exch2 global-IO map */
(PID.TID 0000.0001) W2_printMsg     =  -1 ; /* select option for printing information */
(PID.TID 0000.0001) ===== Start setting W2 TOPOLOGY:
(PID.TID 0000.0001)  write to log-file: w2_tile_topology.0000.log
(PID.TID 0000.0001) =====       setting W2 TOPOLOGY: Done
(PID.TID 0000.0001) 
(PID.TID 0000.0001)  INI_PARMS: opening model parameter file "data"
(PID.TID 0000.0001)  OPEN_COPY_DATA_FILE: opening file data
(PID.TID 0000.0001) // =======================================================
(PID.TID 0000.0001) // Parameter file "data"
(PID.TID 0000.0001) // =======================================================
(PID.TID 0000.0001) ># ====================
(PID.TID 0000.0001) ># | Model parameters |
(PID.TID 0000.0001) ># ====================
(PID.TID 0000.0001) >#
(PID.TID 0000.0001) ># Continuous equation parameters
(PID.TID 0000.0001) > &PARM01
(PID.TID 0000.0001) > tRef = 3*23., 3*22., 21., 2*20., 19., 2*18., 17., 2*16., 15., 14., 13.,
(PID.TID 0000.0001) >        12., 11., 2*9., 8., 7., 2*6., 2*5., 3*4., 3*3., 4*2., 12*1.,
(PID.TID 0000.0001) > sRef = 50*34.5,
(PID.TID 0000.0001) > no_slip_sides  = .TRUE.,
(PID.TID 0000.0001) > no_slip_bottom = .TRUE.,
(PID.TID 0000.0001) >#
(PID.TID 0000.0001) > viscAr=1.E-3,
(PID.TID 0000.0001) >#
(PID.TID 0000.0001) > viscAh=1.E0,
(PID.TID 0000.0001) > viscAhGrid=2.E-2,
(PID.TID 0000.0001) ># viscAh=2.0e4,
(PID.TID 0000.0001) >#
(PID.TID 0000.0001) > diffKhT=1.E1,
(PID.TID 0000.0001) > diffKrT=1.E-5,
(PID.TID 0000.0001) > diffKhS=1.E1,
(PID.TID 0000.0001) > diffKrS=1.E-5,
(PID.TID 0000.0001) >#
(PID.TID 0000.0001) >### diffKrBL79surf=0.1E-4,
(PID.TID 0000.0001) >### diffKrBL79deep=1.0E-4,
(PID.TID 0000.0001) > bottomDragQuadratic = 0.001,
(PID.TID 0000.0001) >#when using ggl90
(PID.TID 0000.0001) > ivdc_kappa=10.,
(PID.TID 0000.0001) > implicitDiffusion=.TRUE.,
(PID.TID 0000.0001) > implicitViscosity=.TRUE.,
(PID.TID 0000.0001) > useRealFreshWaterFlux=.TRUE.,
(PID.TID 0000.0001) ># balanceThetaClimRelax=.TRUE.,
(PID.TID 0000.0001) > balanceSaltClimRelax=.TRUE.,
(PID.TID 0000.0001) > selectBalanceEmPmR=1,
(PID.TID 0000.0001) ># balanceQnet=.TRUE.,
(PID.TID 0000.0001) > allowFreezing=.FALSE.,
(PID.TID 0000.0001) >### hFacInf=0.2,
(PID.TID 0000.0001) >### hFacSup=2.0,
(PID.TID 0000.0001) > hFacMin=.2,
(PID.TID 0000.0001) > hFacMinDr=5.,
(PID.TID 0000.0001) > select_rStar=2,
(PID.TID 0000.0001) > nonlinFreeSurf=4,
(PID.TID 0000.0001) > gravity=9.81,
(PID.TID 0000.0001) > rhonil=1029.,
(PID.TID 0000.0001) > rhoConst=1029.,
(PID.TID 0000.0001) > rhoConstFresh=1000.,
(PID.TID 0000.0001) > convertFW2Salt=-1.,
(PID.TID 0000.0001) > eosType='JMD95Z',
(PID.TID 0000.0001) > implicitFreeSurface=.TRUE.,
(PID.TID 0000.0001) > exactConserv=.TRUE.,
(PID.TID 0000.0001) > useSingleCpuIO=.TRUE.,
(PID.TID 0000.0001) > tempAdvScheme=30,
(PID.TID 0000.0001) > saltAdvScheme=30,
(PID.TID 0000.0001) > tempVertAdvScheme=3,
(PID.TID 0000.0001) > saltVertAdvScheme=3,
(PID.TID 0000.0001) > tempImplVertAdv=.TRUE.,
(PID.TID 0000.0001) > saltImplVertAdv=.TRUE.,
(PID.TID 0000.0001) > staggerTimeStep=.TRUE.,
(PID.TID 0000.0001) > vectorInvariantMomentum=.TRUE.,
(PID.TID 0000.0001) >#when using the cd scheme:
(PID.TID 0000.0001) ># useCDscheme=.TRUE.,
(PID.TID 0000.0001) > useJamartWetPoints=.TRUE.,
(PID.TID 0000.0001) > readBinaryPrec=32,
(PID.TID 0000.0001) > writeBinaryPrec=32,
(PID.TID 0000.0001) > debugLevel=1,
(PID.TID 0000.0001) > /
(PID.TID 0000.0001) >
(PID.TID 0000.0001) ># Elliptic solver parameters
(PID.TID 0000.0001) > &PARM02
(PID.TID 0000.0001) > cg2dMaxIters=300,
(PID.TID 0000.0001) > cg2dTargetResWunit=1.E-12,
(PID.TID 0000.0001) > /
(PID.TID 0000.0001) >
(PID.TID 0000.0001) ># Time stepping parameters
(PID.TID 0000.0001) > &PARM03
(PID.TID 0000.0001) > nIter0=1,
(PID.TID 0000.0001) >#2 lev2 for testing:
(PID.TID 0000.0001) > nTimeSteps=8,
(PID.TID 0000.0001) >#19y:
(PID.TID 0000.0001) >#nTimeSteps=166775,
(PID.TID 0000.0001) >#60 years
(PID.TID 0000.0001) >#nTimeSteps=525985,
(PID.TID 0000.0001) >#
(PID.TID 0000.0001) > forcing_In_AB=.FALSE.,
(PID.TID 0000.0001) > momDissip_In_AB=.FALSE.,
(PID.TID 0000.0001) >#when using the cd scheme:
(PID.TID 0000.0001) ># epsAB_CD = 0.25,
(PID.TID 0000.0001) ># tauCD=172800.0,
(PID.TID 0000.0001) > deltaTmom   =3600.,
(PID.TID 0000.0001) > deltaTtracer=3600.,
(PID.TID 0000.0001) > deltaTfreesurf=3600.,
(PID.TID 0000.0001) > deltaTClock =3600.,
(PID.TID 0000.0001) >#when using ab2:
(PID.TID 0000.0001) ># abEps = 0.1,
(PID.TID 0000.0001) >#when using ab3:
(PID.TID 0000.0001) > doAB_onGtGs=.FALSE.,
(PID.TID 0000.0001) > alph_AB=0.5,
(PID.TID 0000.0001) > beta_AB=0.281105,
(PID.TID 0000.0001) >#
(PID.TID 0000.0001) > pChkptFreq  =31536000.0,
(PID.TID 0000.0001) > chkptFreq   =31536000.0,
(PID.TID 0000.0001) ># dumpFreq    =31536000.0,
(PID.TID 0000.0001) > monitorFreq = 3600.0,
(PID.TID 0000.0001) > dumpInitAndLast = .TRUE.,
(PID.TID 0000.0001) > pickupStrictlyMatch=.FALSE.,
(PID.TID 0000.0001) > /
(PID.TID 0000.0001) >
(PID.TID 0000.0001) ># Gridding parameters
(PID.TID 0000.0001) > &PARM04
(PID.TID 0000.0001) > usingCurvilinearGrid=.TRUE.,
(PID.TID 0000.0001) > delR =
(PID.TID 0000.0001) >     10.00, 10.00, 10.00, 10.00, 10.00, 10.00, 10.00, 10.01,
(PID.TID 0000.0001) >     10.03, 10.11, 10.32, 10.80, 11.76, 13.42, 16.04, 19.82, 24.85,
(PID.TID 0000.0001) >     31.10, 38.42, 46.50, 55.00, 63.50, 71.58, 78.90, 85.15, 90.18,
(PID.TID 0000.0001) >     93.96, 96.58, 98.25, 99.25,100.01,101.33,104.56,111.33,122.83,
(PID.TID 0000.0001) >     139.09,158.94,180.83,203.55,226.50,249.50,272.50,295.50,318.50,
(PID.TID 0000.0001) >     341.50,364.50,387.50,410.50,433.50,456.50,
(PID.TID 0000.0001) > /
(PID.TID 0000.0001) >
(PID.TID 0000.0001) ># Input datasets
(PID.TID 0000.0001) > &PARM05
(PID.TID 0000.0001) > adTapeDir='tapes',
(PID.TID 0000.0001) >#bathyFile      ='bathy_eccollc_90x50.bin',
(PID.TID 0000.0001) > bathyFile      ='bathy_eccollc_90x50_min2pts.bin',
(PID.TID 0000.0001) > hydrogThetaFile='some_T_atlas.bin',
(PID.TID 0000.0001) > hydrogSaltFile ='some_S_atlas.bin',
(PID.TID 0000.0001) > viscA4Dfile    ='viscA4Dfld_eccollc_90x50.bin',
(PID.TID 0000.0001) > viscA4Zfile    ='viscA4Zfld_eccollc_90x50.bin',
(PID.TID 0000.0001) > /
(PID.TID 0000.0001) 
(PID.TID 0000.0001)  INI_PARMS ; starts to read PARM01
(PID.TID 0000.0001)  INI_PARMS ; read PARM01 : OK
(PID.TID 0000.0001)  INI_PARMS ; starts to read PARM02
(PID.TID 0000.0001)  INI_PARMS ; read PARM02 : OK
(PID.TID 0000.0001)  INI_PARMS ; starts to read PARM03
(PID.TID 0000.0001)  INI_PARMS ; read PARM03 : OK
(PID.TID 0000.0001)  INI_PARMS ; starts to read PARM04
(PID.TID 0000.0001)  INI_PARMS ; read PARM04 : OK
(PID.TID 0000.0001)  INI_PARMS ; starts to read PARM05
(PID.TID 0000.0001)  INI_PARMS ; read PARM05 : OK
(PID.TID 0000.0001)  INI_PARMS: finished reading file "data"
(PID.TID 0000.0001)  PACKAGES_BOOT: opening data.pkg
(PID.TID 0000.0001)  OPEN_COPY_DATA_FILE: opening file data.pkg
(PID.TID 0000.0001) // =======================================================
(PID.TID 0000.0001) // Parameter file "data.pkg"
(PID.TID 0000.0001) // =======================================================
(PID.TID 0000.0001) ># Packages
(PID.TID 0000.0001) > &PACKAGES
(PID.TID 0000.0001) > useEXF             = .TRUE.,
(PID.TID 0000.0001) > useCAL             = .TRUE.,
(PID.TID 0000.0001) > useGMRedi          = .TRUE.,
(PID.TID 0000.0001) > useSeaice          = .TRUE.,
(PID.TID 0000.0001) > useGGL90           = .TRUE.,
(PID.TID 0000.0001) > useSALT_PlUME      = .TRUE.,
(PID.TID 0000.0001) > useDiagnostics     = .TRUE.,
(PID.TID 0000.0001) > useECCO            = .TRUE.,
(PID.TID 0000.0001) > useCTRL            = .TRUE.,
(PID.TID 0000.0001) > useProfiles        = .TRUE.,
(PID.TID 0000.0001) > useAUTODIFF        = .FALSE.,
(PID.TID 0000.0001) > useSMOOTH          = .FALSE.,
(PID.TID 0000.0001) > useGrdchk          = .FALSE.,
(PID.TID 0000.0001) >#
(PID.TID 0000.0001) >#useSBO             = .TRUE.,
(PID.TID 0000.0001) >#useRBCS            = .TRUE.,
(PID.TID 0000.0001) >#useKPP             = .TRUE.,
(PID.TID 0000.0001) >#useThsice          = .TRUE.,
(PID.TID 0000.0001) >#useDOWN_SLOPE      = .TRUE.,
(PID.TID 0000.0001) >#useLayers          = .TRUE.,
(PID.TID 0000.0001) >#usePtracers        = .TRUE.,
(PID.TID 0000.0001) >#useBBL             = .TRUE.,
(PID.TID 0000.0001) > /
(PID.TID 0000.0001) 
(PID.TID 0000.0001)  PACKAGES_BOOT: finished reading data.pkg
(PID.TID 0000.0001)  PACKAGES_BOOT: On/Off package Summary
 --------  pkgs with a standard "usePKG" On/Off switch in "data.pkg":  --------
 pkg/ggl90                compiled   and   used ( useGGL90                 = T )
 pkg/gmredi               compiled   and   used ( useGMRedi                = T )
 pkg/cal                  compiled   and   used ( useCAL                   = T )
 pkg/exf                  compiled   and   used ( useEXF                   = T )
 pkg/autodiff             compiled but not used ( useAUTODIFF              = F )
 pkg/grdchk               compiled but not used ( useGrdchk                = F )
 pkg/smooth               compiled but not used ( useSMOOTH                = F )
 pkg/profiles             compiled   and   used ( usePROFILES              = T )
 pkg/ecco                 compiled   and   used ( useECCO                  = T )
 pkg/ctrl                 compiled   and   used ( useCTRL                  = T )
 pkg/sbo                  compiled but not used ( useSBO                   = F )
 pkg/seaice               compiled   and   used ( useSEAICE                = T )
 pkg/salt_plume           compiled   and   used ( useSALT_PLUME            = T )
 pkg/diagnostics          compiled   and   used ( useDiagnostics           = T )
 -------- pkgs without standard "usePKG" On/Off switch in "data.pkg":  --------
 pkg/generic_advdiff      compiled   and   used ( useGAD                   = T )
 pkg/mom_common           compiled   and   used ( momStepping              = T )
 pkg/mom_vecinv           compiled   and   used ( +vectorInvariantMomentum = T )
 pkg/monitor              compiled   and   used ( monitorFreq > 0.         = T )
 pkg/debug                compiled but not used ( debugMode                = F )
 pkg/exch2                compiled   and   used
 pkg/rw                   compiled   and   used
 pkg/mdsio                compiled   and   used
 pkg/autodiff             compiled   and   used
 pkg/cost                 compiled   and   used
(PID.TID 0000.0001)  PACKAGES_BOOT: End of package Summary
(PID.TID 0000.0001) 
(PID.TID 0000.0001) CAL_READPARMS: opening data.cal
(PID.TID 0000.0001)  OPEN_COPY_DATA_FILE: opening file data.cal
(PID.TID 0000.0001) // =======================================================
(PID.TID 0000.0001) // Parameter file "data.cal"
(PID.TID 0000.0001) // =======================================================
(PID.TID 0000.0001) >#
(PID.TID 0000.0001) ># *******************
(PID.TID 0000.0001) ># Calendar Parameters
(PID.TID 0000.0001) ># *******************
(PID.TID 0000.0001) > &CAL_NML
(PID.TID 0000.0001) > TheCalendar='gregorian',
(PID.TID 0000.0001) > calendarDumps=.TRUE.,
(PID.TID 0000.0001) ># TheCalendar='model',
(PID.TID 0000.0001) > startDate_1=19920101,
(PID.TID 0000.0001) > startDate_2=120000,
(PID.TID 0000.0001) > /
(PID.TID 0000.0001) 
(PID.TID 0000.0001) CAL_READPARMS: finished reading data.cal
(PID.TID 0000.0001) EXF_READPARMS: opening data.exf
(PID.TID 0000.0001)  OPEN_COPY_DATA_FILE: opening file data.exf
(PID.TID 0000.0001) // =======================================================
(PID.TID 0000.0001) // Parameter file "data.exf"
(PID.TID 0000.0001) // =======================================================
(PID.TID 0000.0001) ># *********************
(PID.TID 0000.0001) ># External Forcing Data
(PID.TID 0000.0001) ># *********************
(PID.TID 0000.0001) >#
(PID.TID 0000.0001) > &EXF_NML_01
(PID.TID 0000.0001) >#
(PID.TID 0000.0001) > useAtmWind        = .FALSE.,
(PID.TID 0000.0001) >#NCEP VALUES:
(PID.TID 0000.0001) ># exf_albedo        = 0.15,
(PID.TID 0000.0001) ># exf_scal_BulkCdn  = 1.015,
(PID.TID 0000.0001) >#
(PID.TID 0000.0001) >#TO COMBINE WITH ALLOW_ZENITH_ANGLE:
(PID.TID 0000.0001) > exf_albedo        = 0.1,
(PID.TID 0000.0001) > useExfZenIncoming = .TRUE.,
(PID.TID 0000.0001) > select_ZenAlbedo  = 1,
(PID.TID 0000.0001) >#
(PID.TID 0000.0001) > ocean_emissivity = 0.97,
(PID.TID 0000.0001) > ice_emissivity = 0.95,
(PID.TID 0000.0001) > snow_emissivity = 0.95,
(PID.TID 0000.0001) >#
(PID.TID 0000.0001) > exf_iprec         = 32,
(PID.TID 0000.0001) > useExfYearlyFields= .TRUE.,
(PID.TID 0000.0001) > useExfCheckRange  = .FALSE.,
(PID.TID 0000.0001) > /
(PID.TID 0000.0001) >#
(PID.TID 0000.0001) > &EXF_NML_02
(PID.TID 0000.0001) > ustressfile       = 'EIG_ustr',
(PID.TID 0000.0001) > vstressfile       = 'EIG_vstr',
(PID.TID 0000.0001) > atempfile         = 'EIG_tmp2m_degC',
(PID.TID 0000.0001) > aqhfile           = 'EIG_spfh2m',
(PID.TID 0000.0001) > precipfile        = 'EIG_rain',
(PID.TID 0000.0001) ># uwindfile         = 'EIG_u10m',
(PID.TID 0000.0001) ># vwindfile         = 'EIG_v10m',
(PID.TID 0000.0001) > wspeedfile        = 'EIG_wspeed',
(PID.TID 0000.0001) > swdownfile        = 'EIG_dsw',
(PID.TID 0000.0001) > lwdownfile        = 'EIG_dlw',
(PID.TID 0000.0001) >### apressurefile     = 'EIG_pres',
(PID.TID 0000.0001) >#
(PID.TID 0000.0001) > ustressstartdate1   = 19920101,
(PID.TID 0000.0001) > ustressstartdate2   = 030000,
(PID.TID 0000.0001) > ustressperiod       = 21600.0,
(PID.TID 0000.0001) >#
(PID.TID 0000.0001) > vstressstartdate1   = 19920101,
(PID.TID 0000.0001) > vstressstartdate2   = 030000,
(PID.TID 0000.0001) > vstressperiod       = 21600.0,
(PID.TID 0000.0001) >#
(PID.TID 0000.0001) > atempstartdate1   = 19920101,
(PID.TID 0000.0001) > atempstartdate2   = 030000,
(PID.TID 0000.0001) > atempperiod       = 21600.0,
(PID.TID 0000.0001) >#
(PID.TID 0000.0001) > aqhstartdate1     = 19920101,
(PID.TID 0000.0001) > aqhstartdate2     = 030000,
(PID.TID 0000.0001) > aqhperiod         = 21600.0,
(PID.TID 0000.0001) >#
(PID.TID 0000.0001) > precipstartdate1  = 19920101,
(PID.TID 0000.0001) > precipstartdate2  = 030000,
(PID.TID 0000.0001) > precipperiod      = 21600.0,
(PID.TID 0000.0001) >#
(PID.TID 0000.0001) > runofffile        = 'runoff-2d-Fekete-1deg-mon-V4-SMOOTH.bin',
(PID.TID 0000.0001) > runoffperiod      = -12,
(PID.TID 0000.0001) >#
(PID.TID 0000.0001) > uwindstartdate1   = 19920101,
(PID.TID 0000.0001) > uwindstartdate2   = 030000,
(PID.TID 0000.0001) > uwindperiod       = 21600.0,
(PID.TID 0000.0001) >#
(PID.TID 0000.0001) > vwindstartdate1   = 19920101,
(PID.TID 0000.0001) > vwindstartdate2   = 030000,
(PID.TID 0000.0001) > vwindperiod       = 21600.0,
(PID.TID 0000.0001) >#
(PID.TID 0000.0001) > wspeedstartdate1   = 19920101,
(PID.TID 0000.0001) > wspeedstartdate2   = 030000,
(PID.TID 0000.0001) > wspeedperiod       = 21600.0,
(PID.TID 0000.0001) >#
(PID.TID 0000.0001) > swdownstartdate1  = 19920101,
(PID.TID 0000.0001) > swdownstartdate2  = 030000,
(PID.TID 0000.0001) > swdownperiod      = 21600.0,
(PID.TID 0000.0001) >#
(PID.TID 0000.0001) > lwdownstartdate1  = 19920101,
(PID.TID 0000.0001) > lwdownstartdate2  = 030000,
(PID.TID 0000.0001) > lwdownperiod      = 21600.0,
(PID.TID 0000.0001) >#
(PID.TID 0000.0001) > apressurestartdate1   = 19920101,
(PID.TID 0000.0001) > apressurestartdate2   = 030000,
(PID.TID 0000.0001) > apressureperiod       = 21600.0,
(PID.TID 0000.0001) >#
(PID.TID 0000.0001) > climsstperiod     = -12.,
(PID.TID 0000.0001) >#climsssfile       = 'SSS_WPv1_M_eccollc_90x50.bin',
(PID.TID 0000.0001) > climsssperiod     = -12.,
(PID.TID 0000.0001) >#climsssTauRelax   = 15768000.,
(PID.TID 0000.0001) > /
(PID.TID 0000.0001) >#
(PID.TID 0000.0001) > &EXF_NML_03
(PID.TID 0000.0001) >#NOT FOR EIG exf_offset_atemp  = 273.3971,
(PID.TID 0000.0001) > exf_offset_atemp  = 273.15,
(PID.TID 0000.0001) > exf_inscal_swdown = -1.0,
(PID.TID 0000.0001) > exf_inscal_lwdown = -1.0,
(PID.TID 0000.0001) > exf_inscal_ustress = -1.0,
(PID.TID 0000.0001) > exf_inscal_vstress = -1.0,
(PID.TID 0000.0001) > /
(PID.TID 0000.0001) >#
(PID.TID 0000.0001) > &EXF_NML_04
(PID.TID 0000.0001) > runoff_interpMethod = 0,
(PID.TID 0000.0001) > climsss_interpMethod = 0,
(PID.TID 0000.0001) >#
(PID.TID 0000.0001) > ustress_lon0        =   0.0000000D0,
(PID.TID 0000.0001) > ustress_lon_inc     =   0.7031250D0,
(PID.TID 0000.0001) > ustress_lat0        = -89.4628220D0,
(PID.TID 0000.0001) > ustress_lat_inc     = 0.6958694,0.6999817,0.7009048,0.7012634,0.7014313,
(PID.TID 0000.0001) >                     245*0.7017418,
(PID.TID 0000.0001) >                     0.7014313,0.7012634,0.7009048,0.6999817,0.6958694
(PID.TID 0000.0001) > ustress_nlon        = 512,
(PID.TID 0000.0001) > ustress_nlat        = 256,
(PID.TID 0000.0001) >#
(PID.TID 0000.0001) > vstress_lon0        =   0.0000000D0,
(PID.TID 0000.0001) > vstress_lon_inc     =   0.7031250D0,
(PID.TID 0000.0001) > vstress_lat0        = -89.4628220D0,
(PID.TID 0000.0001) > vstress_lat_inc     = 0.6958694,0.6999817,0.7009048,0.7012634,0.7014313,
(PID.TID 0000.0001) >                     245*0.7017418,
(PID.TID 0000.0001) >                     0.7014313,0.7012634,0.7009048,0.6999817,0.6958694
(PID.TID 0000.0001) > vstress_nlon        = 512,
(PID.TID 0000.0001) > vstress_nlat        = 256,
(PID.TID 0000.0001) >#
(PID.TID 0000.0001) > atemp_lon0        =   0.0000000D0,
(PID.TID 0000.0001) > atemp_lon_inc     =   0.7031250D0,
(PID.TID 0000.0001) > atemp_lat0        = -89.4628220D0,
(PID.TID 0000.0001) > atemp_lat_inc     = 0.6958694,0.6999817,0.7009048,0.7012634,0.7014313,
(PID.TID 0000.0001) >                     245*0.7017418,
(PID.TID 0000.0001) >                     0.7014313,0.7012634,0.7009048,0.6999817,0.6958694
(PID.TID 0000.0001) > atemp_nlon        = 512,
(PID.TID 0000.0001) > atemp_nlat        = 256,
(PID.TID 0000.0001) >#
(PID.TID 0000.0001) > aqh_lon0        =   0.0000000D0,
(PID.TID 0000.0001) > aqh_lon_inc     =   0.7031250D0,
(PID.TID 0000.0001) > aqh_lat0        = -89.4628220D0,
(PID.TID 0000.0001) > aqh_lat_inc     = 0.6958694,0.6999817,0.7009048,0.7012634,0.7014313,
(PID.TID 0000.0001) >                     245*0.7017418,
(PID.TID 0000.0001) >                     0.7014313,0.7012634,0.7009048,0.6999817,0.6958694
(PID.TID 0000.0001) > aqh_nlon        = 512,
(PID.TID 0000.0001) > aqh_nlat        = 256,
(PID.TID 0000.0001) >#
(PID.TID 0000.0001) > precip_lon0        =   0.0000000D0,
(PID.TID 0000.0001) > precip_lon_inc     =   0.7031250D0,
(PID.TID 0000.0001) > precip_lat0        = -89.4628220D0,
(PID.TID 0000.0001) > precip_lat_inc     = 0.6958694,0.6999817,0.7009048,0.7012634,0.7014313,
(PID.TID 0000.0001) >                     245*0.7017418,
(PID.TID 0000.0001) >                     0.7014313,0.7012634,0.7009048,0.6999817,0.6958694
(PID.TID 0000.0001) > precip_nlon        = 512,
(PID.TID 0000.0001) > precip_nlat        = 256,
(PID.TID 0000.0001) >#
(PID.TID 0000.0001) > uwind_lon0        =   0.0000000D0,
(PID.TID 0000.0001) > uwind_lon_inc     =   0.7031250D0,
(PID.TID 0000.0001) > uwind_lat0        = -89.4628220D0,
(PID.TID 0000.0001) > uwind_lat_inc     = 0.6958694,0.6999817,0.7009048,0.7012634,0.7014313,
(PID.TID 0000.0001) >                     245*0.7017418,
(PID.TID 0000.0001) >                     0.7014313,0.7012634,0.7009048,0.6999817,0.6958694
(PID.TID 0000.0001) > uwind_nlon        = 512,
(PID.TID 0000.0001) > uwind_nlat        = 256,
(PID.TID 0000.0001) >#
(PID.TID 0000.0001) > vwind_lon0        =   0.0000000D0,
(PID.TID 0000.0001) > vwind_lon_inc     =   0.7031250D0,
(PID.TID 0000.0001) > vwind_lat0        = -89.4628220D0,
(PID.TID 0000.0001) > vwind_lat_inc     = 0.6958694,0.6999817,0.7009048,0.7012634,0.7014313,
(PID.TID 0000.0001) >                     245*0.7017418,
(PID.TID 0000.0001) >                     0.7014313,0.7012634,0.7009048,0.6999817,0.6958694
(PID.TID 0000.0001) > vwind_nlon        = 512,
(PID.TID 0000.0001) > vwind_nlat        = 256,
(PID.TID 0000.0001) >#
(PID.TID 0000.0001) > wspeed_lon0        =   0.0000000D0,
(PID.TID 0000.0001) > wspeed_lon_inc     =   0.7031250D0,
(PID.TID 0000.0001) > wspeed_lat0        = -89.4628220D0,
(PID.TID 0000.0001) > wspeed_lat_inc     = 0.6958694,0.6999817,0.7009048,0.7012634,0.7014313,
(PID.TID 0000.0001) >                     245*0.7017418,
(PID.TID 0000.0001) >                     0.7014313,0.7012634,0.7009048,0.6999817,0.6958694
(PID.TID 0000.0001) > wspeed_nlon        = 512,
(PID.TID 0000.0001) > wspeed_nlat        = 256,
(PID.TID 0000.0001) >#
(PID.TID 0000.0001) > swdown_lon0        =   0.0000000D0,
(PID.TID 0000.0001) > swdown_lon_inc     =   0.7031250D0,
(PID.TID 0000.0001) > swdown_lat0        = -89.4628220D0,
(PID.TID 0000.0001) > swdown_lat_inc     = 0.6958694,0.6999817,0.7009048,0.7012634,0.7014313,
(PID.TID 0000.0001) >                     245*0.7017418,
(PID.TID 0000.0001) >                     0.7014313,0.7012634,0.7009048,0.6999817,0.6958694
(PID.TID 0000.0001) > swdown_nlon        = 512,
(PID.TID 0000.0001) > swdown_nlat        = 256,
(PID.TID 0000.0001) >#
(PID.TID 0000.0001) > lwdown_lon0        =   0.0000000D0,
(PID.TID 0000.0001) > lwdown_lon_inc     =   0.7031250D0,
(PID.TID 0000.0001) > lwdown_lat0        = -89.4628220D0,
(PID.TID 0000.0001) > lwdown_lat_inc     = 0.6958694,0.6999817,0.7009048,0.7012634,0.7014313,
(PID.TID 0000.0001) >                     245*0.7017418,
(PID.TID 0000.0001) >                     0.7014313,0.7012634,0.7009048,0.6999817,0.6958694
(PID.TID 0000.0001) > lwdown_nlon        = 512,
(PID.TID 0000.0001) > lwdown_nlat        = 256,
(PID.TID 0000.0001) >#
(PID.TID 0000.0001) > apressure_lon0        =   0.0000000D0,
(PID.TID 0000.0001) > apressure_lon_inc     =   0.7031250D0,
(PID.TID 0000.0001) > apressure_lat0        = -89.4628220D0,
(PID.TID 0000.0001) > apressure_lat_inc     = 0.6958694,0.6999817,0.7009048,0.7012634,0.7014313,
(PID.TID 0000.0001) >                     245*0.7017418,
(PID.TID 0000.0001) >                     0.7014313,0.7012634,0.7009048,0.6999817,0.6958694
(PID.TID 0000.0001) > apressure_nlon        = 512,
(PID.TID 0000.0001) > apressure_nlat        = 256,
(PID.TID 0000.0001) >#
(PID.TID 0000.0001) > /
(PID.TID 0000.0001) 
(PID.TID 0000.0001) EXF_READPARMS: reading EXF_NML_01
(PID.TID 0000.0001) EXF_READPARMS: reading EXF_NML_02
(PID.TID 0000.0001) EXF_READPARMS: reading EXF_NML_03
(PID.TID 0000.0001) EXF_READPARMS: reading EXF_NML_04
(PID.TID 0000.0001) EXF_READPARMS: finished reading data.exf
(PID.TID 0000.0001)  GGL90_READPARMS: opening data.ggl90
(PID.TID 0000.0001)  OPEN_COPY_DATA_FILE: opening file data.ggl90
(PID.TID 0000.0001) // =======================================================
(PID.TID 0000.0001) // Parameter file "data.ggl90"
(PID.TID 0000.0001) // =======================================================
(PID.TID 0000.0001) ># =====================================================================
(PID.TID 0000.0001) ># | Parameters for Gaspar et al. (1990)'s TKE vertical mixing scheme  |
(PID.TID 0000.0001) ># =====================================================================
(PID.TID 0000.0001) > &GGL90_PARM01
(PID.TID 0000.0001) ># GGL90taveFreq = 345600000.,
(PID.TID 0000.0001) ># GGL90dumpFreq = 86400.,
(PID.TID 0000.0001) ># GGL90writeState=.FALSE.,
(PID.TID 0000.0001) ># GGL90diffTKEh=3.e3,
(PID.TID 0000.0001) > GGL90alpha=30.,
(PID.TID 0000.0001) ># GGL90TKEFile = 'TKE_init.bin',
(PID.TID 0000.0001) > GGL90TKEmin  = 1.e-7,
(PID.TID 0000.0001) > GGL90TKEbottom = 1.e-6,
(PID.TID 0000.0001) > mxlMaxFlag =2,
(PID.TID 0000.0001) > mxlSurfFlag=.TRUE.,
(PID.TID 0000.0001) > /
(PID.TID 0000.0001) 
(PID.TID 0000.0001)  GGL90_READPARMS ; starts to read GGL90_PARM01
(PID.TID 0000.0001)  GGL90_READPARMS: read GGL90_PARM01 : OK
(PID.TID 0000.0001)  GGL90_READPARMS: finished reading data.ggl90
(PID.TID 0000.0001) // =======================================================
(PID.TID 0000.0001) // GGL90 configuration
(PID.TID 0000.0001) // =======================================================
(PID.TID 0000.0001) GGL90dumpFreq =   /* GGL90 state write out interval ( s ). */
(PID.TID 0000.0001)                 0.000000000000000E+00
(PID.TID 0000.0001)     ;
(PID.TID 0000.0001) GGL90taveFreq =   /* GGL90 averaging interval ( s ). */
(PID.TID 0000.0001)                 1.234567000000000E+05
(PID.TID 0000.0001)     ;
(PID.TID 0000.0001) GGL90mixingMAPS =   /* GGL90 IO flag */
(PID.TID 0000.0001)                   F
(PID.TID 0000.0001)     ;
(PID.TID 0000.0001) GGL90writeState =   /* GGL90 IO flag */
(PID.TID 0000.0001)                   F
(PID.TID 0000.0001)     ;
(PID.TID 0000.0001) GGL90ck =   /* GGL90 viscosity parameter */
(PID.TID 0000.0001)                 1.000000000000000E-01
(PID.TID 0000.0001)     ;
(PID.TID 0000.0001) GGL90ceps =   /* GGL90 dissipation parameter */
(PID.TID 0000.0001)                 7.000000000000000E-01
(PID.TID 0000.0001)     ;
(PID.TID 0000.0001) GGL90alpha =   /* GGL90 TKE diffusivity parameter */
(PID.TID 0000.0001)                 3.000000000000000E+01
(PID.TID 0000.0001)     ;
(PID.TID 0000.0001) GGL90m2 =   /* GGL90 wind stress to vertical stress ratio */
(PID.TID 0000.0001)                 3.750000000000000E+00
(PID.TID 0000.0001)     ;
(PID.TID 0000.0001) GGL90TKEmin =   /* GGL90 minimum kinetic energy ( m^2/s^2 ) */
(PID.TID 0000.0001)                 1.000000000000000E-07
(PID.TID 0000.0001)     ;
(PID.TID 0000.0001) GGL90TKEsurfMin =   /* GGL90 minimum surface kinetic energy ( m^2/s^2 ) */
(PID.TID 0000.0001)                 1.000000000000000E-04
(PID.TID 0000.0001)     ;
(PID.TID 0000.0001) GGL90TKEbottom =   /* GGL90 bottom kinetic energy ( m^2/s^2 ) */
(PID.TID 0000.0001)                 1.000000000000000E-06
(PID.TID 0000.0001)     ;
(PID.TID 0000.0001) GGL90viscMax =   /* GGL90 upper limit for viscosity (m^2/s ) */
(PID.TID 0000.0001)                 1.000000000000000E+02
(PID.TID 0000.0001)     ;
(PID.TID 0000.0001) GGL90diffMax =   /* GGL90 upper limit for diffusivity (m^2/s ) */
(PID.TID 0000.0001)                 1.000000000000000E+02
(PID.TID 0000.0001)     ;
(PID.TID 0000.0001) GGL90diffTKEh =   /* GGL90 horizontal diffusivity for TKE ( m^2/s ) */
(PID.TID 0000.0001)                 0.000000000000000E+00
(PID.TID 0000.0001)     ;
(PID.TID 0000.0001) GGL90mixingLengthMin =   /* GGL90 minimum mixing length (m) */
(PID.TID 0000.0001)                 1.000000000000000E-08
(PID.TID 0000.0001)     ;
(PID.TID 0000.0001) mxlMaxFlag =   /* Flag for limiting mixing-length method */
(PID.TID 0000.0001)                       2
(PID.TID 0000.0001)     ;
(PID.TID 0000.0001) mxlSurfFlag =   /* GGL90 flag for near surface mixing */
(PID.TID 0000.0001)                   T
(PID.TID 0000.0001)     ;
(PID.TID 0000.0001) calcMeanVertShear = /* calc Mean of Vert.Shear (vs shear of Mean flow) */
(PID.TID 0000.0001)                   F
(PID.TID 0000.0001)     ;
(PID.TID 0000.0001) GGL90: GGL90TKEFile =
(PID.TID 0000.0001) GGL90_dirichlet =   /* GGL90 Boundary condition flag */
(PID.TID 0000.0001)                   T
(PID.TID 0000.0001)     ;
(PID.TID 0000.0001) // =======================================================
(PID.TID 0000.0001) // End of GGL90 config. summary
(PID.TID 0000.0001) // =======================================================
(PID.TID 0000.0001) 
(PID.TID 0000.0001)  GM_READPARMS: opening data.gmredi
(PID.TID 0000.0001)  OPEN_COPY_DATA_FILE: opening file data.gmredi
(PID.TID 0000.0001) // =======================================================
(PID.TID 0000.0001) // Parameter file "data.gmredi"
(PID.TID 0000.0001) // =======================================================
(PID.TID 0000.0001) ># GM+Redi package parameters:
(PID.TID 0000.0001) >#     GM_Small_Number  :: epsilon used in computing the slope
(PID.TID 0000.0001) >#     GM_slopeSqCutoff :: slope^2 cut-off value
(PID.TID 0000.0001) >
(PID.TID 0000.0001) >#-from MOM :
(PID.TID 0000.0001) ># GM_background_K: 	G & Mc.W  diffusion coefficient
(PID.TID 0000.0001) ># GM_maxSlope    :	max slope of isopycnals
(PID.TID 0000.0001) ># GM_Scrit       :	transition for scaling diffusion coefficient
(PID.TID 0000.0001) ># GM_Sd          :	half width scaling for diffusion coefficient
(PID.TID 0000.0001) ># GM_taper_scheme:	slope clipping or one of the tapering schemes
(PID.TID 0000.0001) ># GM_Kmin_horiz  :	horizontal diffusion minimum value
(PID.TID 0000.0001) >
(PID.TID 0000.0001) >#-Option parameters (needs to "define" options in GMREDI_OPTIONS.h")
(PID.TID 0000.0001) ># GM_isopycK     :	isopycnal diffusion coefficient (default=GM_background_K)
(PID.TID 0000.0001) ># GM_AdvForm     :	turn on GM Advective form       (default=Skew flux form)
(PID.TID 0000.0001) >
(PID.TID 0000.0001) > &GM_PARM01
(PID.TID 0000.0001) >  GM_Small_Number  = 1.D-20,
(PID.TID 0000.0001) >  GM_slopeSqCutoff = 1.D+08,
(PID.TID 0000.0001) >  GM_AdvForm         = .TRUE.,
(PID.TID 0000.0001) >  GM_isopycK         = 1.D+3,
(PID.TID 0000.0001) >  GM_background_K    = 1.D+3,
(PID.TID 0000.0001) >  GM_maxSlope        = 4.D-3,
(PID.TID 0000.0001) >  GM_taper_scheme    = 'stableGmAdjTap',
(PID.TID 0000.0001) >  GM_Kmin_horiz      = 100.,
(PID.TID 0000.0001) >  GM_Scrit           = 4.D-3,
(PID.TID 0000.0001) >  GM_Sd              = 1.D-3,
(PID.TID 0000.0001) >#
(PID.TID 0000.0001) >###  GM_Visbeck_alpha   = 1.5D-2,
(PID.TID 0000.0001) >###  GM_Visbeck_alpha   = 0.D0,
(PID.TID 0000.0001) >###  GM_Visbeck_length  = 2.D+5,
(PID.TID 0000.0001) >###  GM_Visbeck_depth   = 1.D+3,
(PID.TID 0000.0001) >###  GM_Visbeck_maxval_K= 2.5D+3,
(PID.TID 0000.0001) > /
(PID.TID 0000.0001) >
(PID.TID 0000.0001) >
(PID.TID 0000.0001) 
(PID.TID 0000.0001)  GM_READPARMS: finished reading data.gmredi
(PID.TID 0000.0001) 
(PID.TID 0000.0001)  SEAICE_READPARMS: opening data.seaice
(PID.TID 0000.0001)  OPEN_COPY_DATA_FILE: opening file data.seaice
(PID.TID 0000.0001) // =======================================================
(PID.TID 0000.0001) // Parameter file "data.seaice"
(PID.TID 0000.0001) // =======================================================
(PID.TID 0000.0001) ># SEAICE parameters
(PID.TID 0000.0001) > &SEAICE_PARM01
(PID.TID 0000.0001) >#the following is needed to recover old default values
(PID.TID 0000.0001) >#since PR116 (https://github.com/MITgcm/MITgcm/pull/116)
(PID.TID 0000.0001) >      SEAICE_waterDrag=0.005344995140913508357982664,
(PID.TID 0000.0001) >      SEAICEetaZmethod=0,
(PID.TID 0000.0001) >      SEAICEscaleSurfStress=.FALSE.,
(PID.TID 0000.0001) >      SEAICEaddSnowMass=.FALSE.,
(PID.TID 0000.0001) >      SEAICE_OLx=0,
(PID.TID 0000.0001) >      SEAICE_OLy=0,
(PID.TID 0000.0001) >#
(PID.TID 0000.0001) >      SEAICEuseTILT=.FALSE.,
(PID.TID 0000.0001) >      SEAICEpresH0=2.,
(PID.TID 0000.0001) >      SEAICEpresPow0=1,
(PID.TID 0000.0001) >      SEAICEpresPow1=1,
(PID.TID 0000.0001) >      SEAICE_strength = 2.25e4,
(PID.TID 0000.0001) >      SEAICE_drag=0.001,
(PID.TID 0000.0001) >      SEAICE_drag_south=0.002,
(PID.TID 0000.0001) >#
(PID.TID 0000.0001) >      SEAICE_multDim=1,
(PID.TID 0000.0001) >      SEAICErestoreUnderIce=.TRUE.,
(PID.TID 0000.0001) >      SEAICE_area_max=0.97,
(PID.TID 0000.0001) >      SEAICE_salt0=4.,
(PID.TID 0000.0001) >      LSR_ERROR          = 2.e-4,
(PID.TID 0000.0001) >      SEAICEuseDYNAMICS  = .TRUE.,
(PID.TID 0000.0001) >      MIN_ATEMP          = -40.,
(PID.TID 0000.0001) >      MIN_TICE           = -40.,
(PID.TID 0000.0001) >      SEAICEadvScheme    = 30,
(PID.TID 0000.0001) >      SEAICEuseFluxForm = .TRUE.,
(PID.TID 0000.0001) >      SEAICEadvSnow      = .TRUE.,
(PID.TID 0000.0001) >#      SEAICEadvSalt      = .TRUE.,
(PID.TID 0000.0001) >      SEAICEdiffKhHeff   = 400.,
(PID.TID 0000.0001) >      SEAICEdiffKhArea   = 400.,
(PID.TID 0000.0001) >      SEAICEdiffKhSnow   = 400.,
(PID.TID 0000.0001) >#      SEAICEdiffKhSalt   = 400.,
(PID.TID 0000.0001) >      SEAICEuseFlooding  = .TRUE.,
(PID.TID 0000.0001) >      SEAICE_mcPheePiston= 3.858024691358025E-05,
(PID.TID 0000.0001) >      SEAICE_frazilFrac  = 1.,
(PID.TID 0000.0001) >      SEAICE_mcPheeTaper = 0.,
(PID.TID 0000.0001) >      SEAICE_areaLossFormula=2,
(PID.TID 0000.0001) >      SEAICEheatConsFix  = .TRUE.,
(PID.TID 0000.0001) >      SEAICE_tempFrz0    = -1.96,
(PID.TID 0000.0001) >      SEAICE_dTempFrz_dS = 0.,
(PID.TID 0000.0001) >      SEAICEuseMetricTerms = .TRUE.,
(PID.TID 0000.0001) >      SEAICE_no_slip     = .TRUE.,
(PID.TID 0000.0001) >      SEAICE_clipVelocities = .TRUE.,
(PID.TID 0000.0001) >#take 33% out of (1-albedo)
(PID.TID 0000.0001) >      SEAICE_dryIceAlb   = 0.84,
(PID.TID 0000.0001) >      SEAICE_wetIceAlb   = 0.78,
(PID.TID 0000.0001) >      SEAICE_drySnowAlb  = 0.90,
(PID.TID 0000.0001) >      SEAICE_wetSnowAlb  = 0.8 ,
(PID.TID 0000.0001) >#default albedos
(PID.TID 0000.0001) >      SEAICE_dryIceAlb_south   = 0.75
(PID.TID 0000.0001) >      SEAICE_wetIceAlb_south   = 0.66
(PID.TID 0000.0001) >      SEAICE_drySnowAlb_south  = 0.84
(PID.TID 0000.0001) >      SEAICE_wetSnowAlb_south  = 0.7
(PID.TID 0000.0001) > /
(PID.TID 0000.0001) >#
(PID.TID 0000.0001) > &SEAICE_PARM02
(PID.TID 0000.0001) > /
(PID.TID 0000.0001) >
(PID.TID 0000.0001) 
(PID.TID 0000.0001)  SEAICE_READPARMS: finished reading data.seaice
(PID.TID 0000.0001) SALT_PLUME_READPARMS: opening data.salt_plume
(PID.TID 0000.0001)  OPEN_COPY_DATA_FILE: opening file data.salt_plume
(PID.TID 0000.0001) // =======================================================
(PID.TID 0000.0001) // Parameter file "data.salt_plume"
(PID.TID 0000.0001) // =======================================================
(PID.TID 0000.0001) > &SALT_PLUME_PARM01
(PID.TID 0000.0001) ># SaltPlumeCriterion = 0.4D0,
(PID.TID 0000.0001) > SPsalFRAC= 0.5D0,
(PID.TID 0000.0001) >#SPsalFRAC= 0.25D0,
(PID.TID 0000.0001) >#SPsalFRAC= 0.0D0,
(PID.TID 0000.0001) > /
(PID.TID 0000.0001) 
(PID.TID 0000.0001) SALT_PLUME_READPARMS: finished reading data.salt_plume
(PID.TID 0000.0001) OPTIM_READPARMS: opening data.optim
(PID.TID 0000.0001)  OPEN_COPY_DATA_FILE: opening file data.optim
(PID.TID 0000.0001) // =======================================================
(PID.TID 0000.0001) // Parameter file "data.optim"
(PID.TID 0000.0001) // =======================================================
(PID.TID 0000.0001) >#
(PID.TID 0000.0001) ># ********************************
(PID.TID 0000.0001) ># Off-line optimization parameters
(PID.TID 0000.0001) ># ********************************
(PID.TID 0000.0001) > &OPTIM
(PID.TID 0000.0001) > optimcycle=0,
(PID.TID 0000.0001) > /
(PID.TID 0000.0001) 
(PID.TID 0000.0001) OPTIM_READPARMS: finished reading data.optim
(PID.TID 0000.0001) CTRL_READPARMS: opening data.ctrl
(PID.TID 0000.0001)  OPEN_COPY_DATA_FILE: opening file data.ctrl
(PID.TID 0000.0001) // =======================================================
(PID.TID 0000.0001) // Parameter file "data.ctrl"
(PID.TID 0000.0001) // =======================================================
(PID.TID 0000.0001) ># *********************
(PID.TID 0000.0001) ># ECCO control variables
(PID.TID 0000.0001) ># *********************
(PID.TID 0000.0001) > &ctrl_nml
(PID.TID 0000.0001) > doSinglePrecTapelev=.TRUE.,
(PID.TID 0000.0001) > /
(PID.TID 0000.0001) >#
(PID.TID 0000.0001) ># *********************
(PID.TID 0000.0001) ># names for ctrl_pack/unpack
(PID.TID 0000.0001) ># *********************
(PID.TID 0000.0001) > &ctrl_packnames
(PID.TID 0000.0001) > /
(PID.TID 0000.0001) >#
(PID.TID 0000.0001) ># *********************
(PID.TID 0000.0001) ># names for CTRL_GENARR2D,3D CTRL_GENTIM2D
(PID.TID 0000.0001) ># *********************
(PID.TID 0000.0001) > &CTRL_NML_GENARR
(PID.TID 0000.0001) >#
(PID.TID 0000.0001) > xx_genarr3d_weight(1) = 'wt_ones.bin',
(PID.TID 0000.0001) > xx_genarr3d_file(1)='xx_kapgm',
(PID.TID 0000.0001) > mult_genarr3d(1) = 0.,
(PID.TID 0000.0001) >#
(PID.TID 0000.0001) > xx_genarr3d_weight(2) = 'wt_ones.bin',
(PID.TID 0000.0001) > xx_genarr3d_file(2)='xx_kapredi',
(PID.TID 0000.0001) > mult_genarr3d(2) = 0.,
(PID.TID 0000.0001) >#
(PID.TID 0000.0001) > xx_genarr3d_weight(3) = 'wt_ones.bin',
(PID.TID 0000.0001) > xx_genarr3d_file(3)='xx_diffkr',
(PID.TID 0000.0001) > mult_genarr3d(3) = 0.,
(PID.TID 0000.0001) >#
(PID.TID 0000.0001) > /
(PID.TID 0000.0001) >
(PID.TID 0000.0001) 
(PID.TID 0000.0001) CTRL_READPARMS: finished reading data.ctrl
(PID.TID 0000.0001) read-write ctrl files from current run directory
(PID.TID 0000.0001) COST_READPARMS: opening data.cost
(PID.TID 0000.0001)  OPEN_COPY_DATA_FILE: opening file data.cost
(PID.TID 0000.0001) // =======================================================
(PID.TID 0000.0001) // Parameter file "data.cost"
(PID.TID 0000.0001) // =======================================================
(PID.TID 0000.0001) >#
(PID.TID 0000.0001) >#
(PID.TID 0000.0001) ># ******************
(PID.TID 0000.0001) ># cost function
(PID.TID 0000.0001) ># ******************
(PID.TID 0000.0001) > &COST_NML
(PID.TID 0000.0001) > /
(PID.TID 0000.0001) 
(PID.TID 0000.0001) COST_READPARMS: finished reading data.cost
(PID.TID 0000.0001) ECCO_READPARMS: opening data.ecco
(PID.TID 0000.0001)  OPEN_COPY_DATA_FILE: opening file data.ecco
(PID.TID 0000.0001) // =======================================================
(PID.TID 0000.0001) // Parameter file "data.ecco"
(PID.TID 0000.0001) // =======================================================
(PID.TID 0000.0001) ># *******************
(PID.TID 0000.0001) ># ECCO cost functions
(PID.TID 0000.0001) ># *******************
(PID.TID 0000.0001) > &ECCO_COST_NML
(PID.TID 0000.0001) >#
(PID.TID 0000.0001) > /
(PID.TID 0000.0001) ># ***************************
(PID.TID 0000.0001) ># ECCO generic cost functions
(PID.TID 0000.0001) ># ***************************
(PID.TID 0000.0001) > &ECCO_GENCOST_NML
(PID.TID 0000.0001) > gencost_avgperiod(1)  = 'month',
(PID.TID 0000.0001) > gencost_barfile(1) = 'm_siv4_area',
(PID.TID 0000.0001) > gencost_datafile(1) = 'nsidc79_monthly',
(PID.TID 0000.0001) > gencost_errfile(1) = 'sigma_iceconc_eccollc.bin',
(PID.TID 0000.0001) > gencost_name(1) = 'siv4-conc',
(PID.TID 0000.0001) > gencost_spmin(1) = -999.,
(PID.TID 0000.0001) > gencost_spmax(1) = 999.,
(PID.TID 0000.0001) > gencost_spzero(1) = -9999.,
(PID.TID 0000.0001) > gencost_outputlevel(1)=0,
(PID.TID 0000.0001) > mult_gencost(1) = 0.,
(PID.TID 0000.0001) >#
(PID.TID 0000.0001) > gencost_avgperiod(2)  = 'month',
(PID.TID 0000.0001) > gencost_barfile(2) = 'm_siv4_deconc',
(PID.TID 0000.0001) > gencost_name(2) = 'siv4-deconc',
(PID.TID 0000.0001) > gencost_datafile(2) = 'nsidc79_monthly',
(PID.TID 0000.0001) > gencost_spmin(2) = -999.,
(PID.TID 0000.0001) > gencost_spmax(2) = 999.,
(PID.TID 0000.0001) > gencost_spzero(2) = -9999.,
(PID.TID 0000.0001) > gencost_outputlevel(2)=1,
(PID.TID 0000.0001) > mult_gencost(2) = 1.,
(PID.TID 0000.0001) >#
(PID.TID 0000.0001) > gencost_avgperiod(3)  = 'month',
(PID.TID 0000.0001) > gencost_barfile(3) = 'm_siv4_exconc',
(PID.TID 0000.0001) > gencost_name(3) = 'siv4-exconc',
(PID.TID 0000.0001) > gencost_datafile(3) = 'nsidc79_monthly',
(PID.TID 0000.0001) > gencost_spmin(3) = -999.,
(PID.TID 0000.0001) > gencost_spmax(3) = 999.,
(PID.TID 0000.0001) > gencost_spzero(3) = -9999.,
(PID.TID 0000.0001) > gencost_outputlevel(3)=0,
(PID.TID 0000.0001) > mult_gencost(3) = 0.,
(PID.TID 0000.0001) >#
(PID.TID 0000.0001) > gencost_avgperiod(4)  = 'month',
(PID.TID 0000.0001) > gencost_barfile(4) = 'm_sst_mon',
(PID.TID 0000.0001) > gencost_datafile(4) = 'reynolds_oiv2_r1',
(PID.TID 0000.0001) > gencost_errfile(4) = 'sigma_surf_0p5.bin',
(PID.TID 0000.0001) > gencost_name(4) = 'sst-reynolds',
(PID.TID 0000.0001) > gencost_spmin(4) = -1.8,
(PID.TID 0000.0001) > gencost_spmax(4) = 40.,
(PID.TID 0000.0001) > gencost_spzero(4) = 0.,
(PID.TID 0000.0001) > gencost_outputlevel(4)=1,
(PID.TID 0000.0001) > mult_gencost(4) = 1.,
(PID.TID 0000.0001) >#
(PID.TID 0000.0001) > gencost_avgperiod(5)  = 'month',
(PID.TID 0000.0001) > gencost_barfile(5) = 'm_sst_mon',
(PID.TID 0000.0001) > gencost_datafile(5) = 'tmi_amsre_oisst_r1',
(PID.TID 0000.0001) > gencost_errfile(5) = 'sigma_surf_0p5.bin',
(PID.TID 0000.0001) > gencost_name(5) = 'sst-tmi-amsre',
(PID.TID 0000.0001) > gencost_startdate1(5) = 19980101,
(PID.TID 0000.0001) > gencost_startdate2(5)= 00000,
(PID.TID 0000.0001) > gencost_spmin(5) = -1.8,
(PID.TID 0000.0001) > gencost_spmax(5) = 40.,
(PID.TID 0000.0001) > gencost_spzero(5) = 0.,
(PID.TID 0000.0001) > gencost_outputlevel(5)=0,
(PID.TID 0000.0001) > mult_gencost(5) = 0.,
(PID.TID 0000.0001) >#
(PID.TID 0000.0001) > gencost_avgperiod(6)  = 'month',
(PID.TID 0000.0001) > gencost_barfile(6) = 'm_bp_mon',
(PID.TID 0000.0001) > gencost_datafile(6) = 'GRACE_jpl_rl05m',
(PID.TID 0000.0001) > gencost_errfile(6) = 'GRACE_jpl_rl05m_err',
(PID.TID 0000.0001) > gencost_name(6) = 'grace-mascons',
(PID.TID 0000.0001) > gencost_startdate1(6) = 20020101,
(PID.TID 0000.0001) > gencost_startdate2(6)= 00000,
(PID.TID 0000.0001) > gencost_spmin(6) = -40,
(PID.TID 0000.0001) > gencost_spmax(6) = 40.,
(PID.TID 0000.0001) > gencost_spzero(6) = -999.,
(PID.TID 0000.0001) > gencost_preproc(1,6)='anom',
(PID.TID 0000.0001) ># convert from m2/s2 to cm
(PID.TID 0000.0001) > gencost_preproc(2,6)='factor',
(PID.TID 0000.0001) > gencost_preproc_r(2,6)=10.1937,
(PID.TID 0000.0001) > gencost_posproc(1,6)='smooth',
(PID.TID 0000.0001) > gencost_posproc_c(1,6)='sshv4_scale_3points.bin',
(PID.TID 0000.0001) > gencost_posproc_i(1,6)=300,
(PID.TID 0000.0001) > gencost_outputlevel(6)=0,
(PID.TID 0000.0001) > mult_gencost(6) = 0.,
(PID.TID 0000.0001) >#- To use cost_gencost_bpv4, needs to switch name to 'bpv4-grace':
(PID.TID 0000.0001) ># gencost_name(6) = 'bpv4-grace',
(PID.TID 0000.0001) >#- the hard-coded (before PR 693) values used in gencost_bpv4 for smooth_basic2D calls:
(PID.TID 0000.0001) ># gencost_posproc_i(1,6)=3000,
(PID.TID 0000.0001) ># gencost_posproc_r(1,6)=3.E+5,
(PID.TID 0000.0001) >#---
(PID.TID 0000.0001) > gencost_avgperiod(7)  = 'month',
(PID.TID 0000.0001) > gencost_barfile(7) = 'm_theta_mon',
(PID.TID 0000.0001) > gencost_datafile(7) = 'some_T_atlas.bin',
(PID.TID 0000.0001) > gencost_errfile(7) = 'sigma_T_atlas2_eccollc.bin',
(PID.TID 0000.0001) > gencost_preproc(1,7)='clim',
(PID.TID 0000.0001) > gencost_name(7) = 'thetaclim',
(PID.TID 0000.0001) > gencost_preproc_i(1,7)=12,
(PID.TID 0000.0001) ># gencost_preproc(1,7)='mean',
(PID.TID 0000.0001) ># gencost_name(7) = 'thetamean',
(PID.TID 0000.0001) ># gencost_preproc(1,7)='anom',
(PID.TID 0000.0001) ># gencost_name(7) = 'thetaanom',
(PID.TID 0000.0001) ># gencost_name(7) = 'thetarepeat',
(PID.TID 0000.0001) > gencost_spmin(7) = -1.8,
(PID.TID 0000.0001) > gencost_spmax(7) = 40.,
(PID.TID 0000.0001) > gencost_spzero(7) = 0.,
(PID.TID 0000.0001) > gencost_outputlevel(7)=1,
(PID.TID 0000.0001) > mult_gencost(7) = 1.,
(PID.TID 0000.0001) >#
(PID.TID 0000.0001) > gencost_avgperiod(8)  = 'month',
(PID.TID 0000.0001) > gencost_barfile(8) = 'm_salt_mon',
(PID.TID 0000.0001) > gencost_datafile(8) = 'some_S_atlas.bin',
(PID.TID 0000.0001) > gencost_errfile(8) = 'sigma_S_atlas2_eccollc.bin',
(PID.TID 0000.0001) > gencost_preproc(1,8)='clim',
(PID.TID 0000.0001) > gencost_name(8) = 'saltclim',
(PID.TID 0000.0001) > gencost_preproc_i(1,8)=12,
(PID.TID 0000.0001) > gencost_spmin(8) = 25.,
(PID.TID 0000.0001) > gencost_spmax(8) = 40.,
(PID.TID 0000.0001) > gencost_spzero(8) = 0.,
(PID.TID 0000.0001) > gencost_outputlevel(8)=1,
(PID.TID 0000.0001) > mult_gencost(8) = 1.,
(PID.TID 0000.0001) >#
(PID.TID 0000.0001) > gencost_avgperiod(9)  = 'day',
(PID.TID 0000.0001) > gencost_barfile(9) = 'm_ustress_day',
(PID.TID 0000.0001) > gencost_datafile(9) = 'QSCAT_Large_u_r2',
(PID.TID 0000.0001) > gencost_startdate1(9) = 19990101,
(PID.TID 0000.0001) > gencost_startdate2(9) = 00000,
(PID.TID 0000.0001) > gencost_errfile(9) = 'QSCAT_Large_u_r2.rms',
(PID.TID 0000.0001) > gencost_name(9) = 'tauZon-scat',
(PID.TID 0000.0001) > gencost_spmin(9) = -999.,
(PID.TID 0000.0001) > gencost_spmax(9) = 999.,
(PID.TID 0000.0001) > gencost_spzero(9) = 0.,
(PID.TID 0000.0001) >#typical ratio between ECMWF and QSCAT stresses
(PID.TID 0000.0001) > gencost_preproc(1,9)='factor',
(PID.TID 0000.0001) > gencost_preproc_r(1,9)=0.7,
(PID.TID 0000.0001) > gencost_outputlevel(9)=0,
(PID.TID 0000.0001) > mult_gencost(9) = 0.,
(PID.TID 0000.0001) >#
(PID.TID 0000.0001) > gencost_avgperiod(10)  = 'day',
(PID.TID 0000.0001) > gencost_barfile(10) = 'm_vstress_day',
(PID.TID 0000.0001) > gencost_datafile(10) = 'QSCAT_Large_v_r2',
(PID.TID 0000.0001) > gencost_startdate1(10) = 19990101,
(PID.TID 0000.0001) > gencost_startdate2(10) = 00000,
(PID.TID 0000.0001) > gencost_errfile(10) = 'QSCAT_Large_v_r2.rms',
(PID.TID 0000.0001) > gencost_name(10) = 'tauMer-scat',
(PID.TID 0000.0001) > gencost_spmin(10) = -999.,
(PID.TID 0000.0001) > gencost_spmax(10) = 999.,
(PID.TID 0000.0001) > gencost_spzero(10) = 0.,
(PID.TID 0000.0001) >#typical ratio between ECMWF and QSCAT stresses
(PID.TID 0000.0001) > gencost_preproc(1,10)='factor',
(PID.TID 0000.0001) > gencost_preproc_r(1,10)=0.7,
(PID.TID 0000.0001) > gencost_outputlevel(10)=0,
(PID.TID 0000.0001) > mult_gencost(10) = 0.,
(PID.TID 0000.0001) >#
(PID.TID 0000.0001) > gencost_datafile(11) = 'mdt_pak09.bin',
(PID.TID 0000.0001) > gencost_startdate1(11) = 19930101,
(PID.TID 0000.0001) > gencost_startdate2(11) = 00000,
(PID.TID 0000.0001) > gencost_enddate1(11) = 20041231,
(PID.TID 0000.0001) > gencost_enddate2(11) = 00000,
(PID.TID 0000.0001) > gencost_errfile(11) = 'sigma_MDT_glob_eccollc.bin',
(PID.TID 0000.0001) > gencost_name(11) = 'sshv4-mdt',
(PID.TID 0000.0001) > gencost_posproc(1,11)='smooth',
(PID.TID 0000.0001) > gencost_posproc_c(1,11)='sshv4_scale_1p5points.bin',
(PID.TID 0000.0001) > gencost_posproc_i(1,11)=300,
(PID.TID 0000.0001) > gencost_outputlevel(11)=1,
(PID.TID 0000.0001) > mult_gencost(11) = 1.,
(PID.TID 0000.0001) >#
(PID.TID 0000.0001) > gencost_barfile(12) = 'm_eta_day',
(PID.TID 0000.0001) > gencost_datafile(12) = 'RADS_TJ_mar2016',
(PID.TID 0000.0001) > gencost_startdate1(12) = 19920101,
(PID.TID 0000.0001) > gencost_startdate2(12) = 00000,
(PID.TID 0000.0001) > gencost_avgperiod(12)  = 'day',
(PID.TID 0000.0001) > gencost_errfile(12) = 'slaerr_gridscale_r5.err',
(PID.TID 0000.0001) > gencost_name(12) = 'sshv4-tp',
(PID.TID 0000.0001) > gencost_outputlevel(12)=1,
(PID.TID 0000.0001) > mult_gencost(12) = 1.,
(PID.TID 0000.0001) >#
(PID.TID 0000.0001) > gencost_datafile(13) = 'RADS_ERS_ENV_SA_mar2016',
(PID.TID 0000.0001) > gencost_startdate1(13) = 19920101,
(PID.TID 0000.0001) > gencost_startdate2(13) = 00000,
(PID.TID 0000.0001) > gencost_avgperiod(13)  = 'day',
(PID.TID 0000.0001) > gencost_errfile(13) = 'slaerr_gridscale_r5.err',
(PID.TID 0000.0001) > gencost_name(13) = 'sshv4-ers',
(PID.TID 0000.0001) > gencost_outputlevel(13)=1,
(PID.TID 0000.0001) > mult_gencost(13) = 1.,
(PID.TID 0000.0001) >#
(PID.TID 0000.0001) > gencost_datafile(14) = 'RADS_GFO_C2_mar2016',
(PID.TID 0000.0001) > gencost_startdate1(14) = 19920101,
(PID.TID 0000.0001) > gencost_startdate2(14) = 00000,
(PID.TID 0000.0001) > gencost_avgperiod(14)  = 'day',
(PID.TID 0000.0001) > gencost_errfile(14) = 'slaerr_gridscale_r5.err',
(PID.TID 0000.0001) > gencost_name(14) = 'sshv4-gfo',
(PID.TID 0000.0001) > gencost_outputlevel(14)=1,
(PID.TID 0000.0001) > mult_gencost(14) = 1.,
(PID.TID 0000.0001) >#
(PID.TID 0000.0001) > gencost_errfile(15) = 'slaerr_largescale_r5.err',
(PID.TID 0000.0001) > gencost_name(15) = 'sshv4-lsc',
(PID.TID 0000.0001) > gencost_posproc(1,15)='smooth',
(PID.TID 0000.0001) > gencost_posproc_c(1,15)='sshv4_scale_3points.bin',
(PID.TID 0000.0001) > gencost_posproc_i(1,15)=300,
(PID.TID 0000.0001) > gencost_outputlevel(15)=1,
(PID.TID 0000.0001) > mult_gencost(15) = 1.,
(PID.TID 0000.0001) >#
(PID.TID 0000.0001) > gencost_name(16) = 'sshv4-gmsl',
(PID.TID 0000.0001) > gencost_outputlevel(16)=1,
(PID.TID 0000.0001) > mult_gencost(16) = 0.001,
(PID.TID 0000.0001) >#
(PID.TID 0000.0001) > gencost_avgperiod(17)  = 'month',
(PID.TID 0000.0001) > gencost_barfile(17) = 'm_salt_mon',
(PID.TID 0000.0001) > gencost_datafile(17) = 'some_S_atlas.bin',
(PID.TID 0000.0001) > gencost_errfile(17) = 'sigma_surf_0p5.bin',
(PID.TID 0000.0001) > gencost_name(17) = 'sss_repeat',
(PID.TID 0000.0001) > gencost_spmin(17) = 25.,
(PID.TID 0000.0001) > gencost_spmax(17) = 40.,
(PID.TID 0000.0001) > gencost_spzero(17) = 0.,
(PID.TID 0000.0001) > gencost_outputlevel(17)=0,
(PID.TID 0000.0001) > mult_gencost(17) = 0.,
(PID.TID 0000.0001) > /
(PID.TID 0000.0001) >#
(PID.TID 0000.0001) 
(PID.TID 0000.0001) ECCO_READPARMS: finished reading #1: ecco_cost_nml
(PID.TID 0000.0001) ECCO_READPARMS: finished reading #2: ecco_gencost_nml
(PID.TID 0000.0001) ECCO_READPARMS: done
(PID.TID 0000.0001) PROFILES_READPARMS: opening data.profiles
(PID.TID 0000.0001)  OPEN_COPY_DATA_FILE: opening file data.profiles
(PID.TID 0000.0001) // =======================================================
(PID.TID 0000.0001) // Parameter file "data.profiles"
(PID.TID 0000.0001) // =======================================================
(PID.TID 0000.0001) >#
(PID.TID 0000.0001) ># ******************
(PID.TID 0000.0001) ># PROFILES cost function
(PID.TID 0000.0001) ># ******************
(PID.TID 0000.0001) > &PROFILES_NML
(PID.TID 0000.0001) > profilesDoGenGrid=.TRUE.,
(PID.TID 0000.0001) >#
(PID.TID 0000.0001) > /
(PID.TID 0000.0001) 
(PID.TID 0000.0001) PROFILES_READPARMS: finished reading data.profiles
(PID.TID 0000.0001)  DIAGNOSTICS_READPARMS: opening data.diagnostics
(PID.TID 0000.0001)  OPEN_COPY_DATA_FILE: opening file data.diagnostics
(PID.TID 0000.0001) // =======================================================
(PID.TID 0000.0001) // Parameter file "data.diagnostics"
(PID.TID 0000.0001) // =======================================================
(PID.TID 0000.0001) ># Diagnostic Package Choices
(PID.TID 0000.0001) >#--------------------
(PID.TID 0000.0001) >#  dumpAtLast (logical): always write output at the end of simulation (default=F)
(PID.TID 0000.0001) >#  diag_mnc   (logical): write to NetCDF files (default=useMNC)
(PID.TID 0000.0001) >#--for each output-stream:
(PID.TID 0000.0001) >#  fileName(n) : prefix of the output file name (max 80c long) for outp.stream n
(PID.TID 0000.0001) >#  frequency(n):< 0 : write snap-shot output every |frequency| seconds
(PID.TID 0000.0001) >#               > 0 : write time-average output every frequency seconds
(PID.TID 0000.0001) >#  timePhase(n)     : write at time = timePhase + multiple of |frequency|
(PID.TID 0000.0001) >#    averagingFreq  : frequency (in s) for periodic averaging interval
(PID.TID 0000.0001) >#    averagingPhase : phase     (in s) for periodic averaging interval
(PID.TID 0000.0001) >#    repeatCycle    : number of averaging intervals in 1 cycle
(PID.TID 0000.0001) >#  levels(:,n) : list of levels to write to file (Notes: declared as REAL)
(PID.TID 0000.0001) >#                when this entry is missing, select all common levels of this list
(PID.TID 0000.0001) >#  fields(:,n) : list of selected diagnostics fields (8.c) in outp.stream n
(PID.TID 0000.0001) >#                (see "available_diagnostics.log" file for the full list of diags)
(PID.TID 0000.0001) >#  missing_value(n) : missing value for real-type fields in output file "n"
(PID.TID 0000.0001) >#  fileFlags(n)     : specific code (8c string) for output file "n"
(PID.TID 0000.0001) >#--------------------
(PID.TID 0000.0001) > &DIAGNOSTICS_LIST
(PID.TID 0000.0001) >   dumpatlast = .TRUE.,
(PID.TID 0000.0001) >   diagMdsDir = 'diags',
(PID.TID 0000.0001) >#---
(PID.TID 0000.0001) >  frequency(1) = 2635200.0,
(PID.TID 0000.0001) >   fields(1:25,1) = 'ETAN    ','SIarea  ','SIheff  ','SIhsnow ',
(PID.TID 0000.0001) >#stuff that is not quite state variables (and may not be quite
(PID.TID 0000.0001) >#synchroneous) but are added here to reduce number of files
(PID.TID 0000.0001) >                 'DETADT2 ','PHIBOT  ','sIceLoad',
(PID.TID 0000.0001) >                 'MXLDEPTH','oceSPDep',
(PID.TID 0000.0001) >                 'SIatmQnt','SIatmFW ','oceQnet ','oceFWflx',
(PID.TID 0000.0001) >                 'oceTAUX ','oceTAUY ',
(PID.TID 0000.0001) >                 'ADVxHEFF','ADVyHEFF','DFxEHEFF','DFyEHEFF',
(PID.TID 0000.0001) >                 'ADVxSNOW','ADVySNOW','DFxESNOW','DFyESNOW',
(PID.TID 0000.0001) >                 'SIuice  ','SIvice  ',
(PID.TID 0000.0001) >   filename(1) = 'state_2d_set1',
(PID.TID 0000.0001) >#---
(PID.TID 0000.0001) >  frequency(2) = 2635200.0,
(PID.TID 0000.0001) >   fields(1:3,2) = 'THETA   ','SALT    ',
(PID.TID 0000.0001) >#stuff that is not quite state variables (and may not be quite
(PID.TID 0000.0001) >#synchroneous) but are added here to reduce file number
(PID.TID 0000.0001) >                 'DRHODR  ',
(PID.TID 0000.0001) >#                'KPPviscA','KPPdiffT','KPPdiffTS',
(PID.TID 0000.0001) >#                'GGL90TKE','GGL90Lmx','GGL90Prl',
(PID.TID 0000.0001) >#                'GGL90ArU','GGL90ArV','GGL90Kr ',
(PID.TID 0000.0001) >   filename(2) = 'state_3d_set1',
(PID.TID 0000.0001) >#---
(PID.TID 0000.0001) >  frequency(3) = 2635200.0,
(PID.TID 0000.0001) >   fields(1:5,3) = 'UVELMASS','VVELMASS','WVELMASS',
(PID.TID 0000.0001) >                 'GM_PsiX ','GM_PsiY ',
(PID.TID 0000.0001) >#uvel is approximately uvelmass divided by initial hfac, so we dont output the former
(PID.TID 0000.0001) >#                'UVEL    ','VVEL    ','WVEL     ',
(PID.TID 0000.0001) >#full 3D temperature fluxes : 'DFxE_TH ','DFyE_TH ','DFrE_TH ','DFrI_TH ','ADVx_TH ','ADVy_TH ','ADVr_TH ',
(PID.TID 0000.0001) >#but for present computations I only need the vertically integrated horizontal components (see trsp_3d_set2)
(PID.TID 0000.0001) >   filename(3) = 'trsp_3d_set1',
(PID.TID 0000.0001) >#---
(PID.TID 0000.0001) >  frequency(4) = 2635200.0,
(PID.TID 0000.0001) >   fields(1:8,4) = 'DFxE_TH ','DFyE_TH ','ADVx_TH ','ADVy_TH ',
(PID.TID 0000.0001) >                 'DFxE_SLT','DFyE_SLT','ADVx_SLT','ADVy_SLT',
(PID.TID 0000.0001) >   filename(4) = 'trsp_3d_set2',
(PID.TID 0000.0001) >#vertically integrate fields we only use to compute vertically integr.
(PID.TID 0000.0001) >#meridional transports (also omit vertical transports, both to save space)
(PID.TID 0000.0001) >#---
(PID.TID 0000.0001) >  frequency(5) = -2635200.0,
(PID.TID 0000.0001) >   fields(1:6,5) = 'ETAN    ','SIheff  ','SIhsnow ',
(PID.TID 0000.0001) >                 'SIarea  ','sIceLoad','PHIBOT  ',
(PID.TID 0000.0001) >#  filename(5) = 'budg2d_snap_set1',
(PID.TID 0000.0001) >   timePhase(5)= 0.,
(PID.TID 0000.0001) >   fileFlags(5) = 'D       ',
(PID.TID 0000.0001) >#---
(PID.TID 0000.0001) >  frequency(6) = -2635200.0,
(PID.TID 0000.0001) >   fields(1:2,6) = 'THETA   ','SALT    ',
(PID.TID 0000.0001) >#  filename(6) = 'budg2d_snap_set2',
(PID.TID 0000.0001) >   timePhase(6)= 0.,
(PID.TID 0000.0001) >   fileFlags(6) = 'DI      ',
(PID.TID 0000.0001) >#---
(PID.TID 0000.0001) >  frequency(7) = 2635200.0,
(PID.TID 0000.0001) >   fields(1:7,7) = 'oceFWflx','SIatmFW ','TFLUX   ','SItflux ',
(PID.TID 0000.0001) >                   'SFLUX   ','oceQsw  ','oceSPflx',
(PID.TID 0000.0001) >#  filename(7) = 'budg2d_zflux_set1',
(PID.TID 0000.0001) >   fileFlags(7) = 'D       ',
(PID.TID 0000.0001) >#---
(PID.TID 0000.0001) >  frequency(8) = 2635200.0,
(PID.TID 0000.0001) >   fields(1:13,8) ='UVELMASS','VVELMASS',
(PID.TID 0000.0001) >                 'ADVx_TH ','ADVy_TH ','DFxE_TH ','DFyE_TH ',
(PID.TID 0000.0001) >                 'ADVx_SLT','ADVy_SLT','DFxE_SLT','DFyE_SLT',
(PID.TID 0000.0001) >#the following are not transports but tendencies
(PID.TID 0000.0001) >                 'oceSPtnd','AB_gT   ','AB_gS   ',
(PID.TID 0000.0001) >#  filename(8) = 'budg2d_hflux_set2',
(PID.TID 0000.0001) >   fileFlags(8) = 'DI      ',
(PID.TID 0000.0001) >#---
(PID.TID 0000.0001) >  frequency(9) = 2635200.0,
(PID.TID 0000.0001) >   fields(1:8,9) ='ADVxHEFF','ADVyHEFF','DFxEHEFF','DFyEHEFF',
(PID.TID 0000.0001) >                 'ADVxSNOW','ADVySNOW','DFxESNOW','DFyESNOW',
(PID.TID 0000.0001) >#  filename(9) = 'budg2d_hflux_set1',
(PID.TID 0000.0001) >   fileFlags(9) = 'D       ',
(PID.TID 0000.0001) >#---
(PID.TID 0000.0001) ># this one is important because it activates the vertical advection diags
(PID.TID 0000.0001) >  frequency(10) = 2635200.0,
(PID.TID 0000.0001) >   fields(1:7,10) = 'ADVr_TH ','DFrE_TH ','DFrI_TH ',
(PID.TID 0000.0001) >                  'ADVr_SLT','DFrE_SLT','DFrI_SLT',
(PID.TID 0000.0001) >                  'WVELMASS',
(PID.TID 0000.0001) >#  filename(10) = 'budg2d_zflux_set3_11',
(PID.TID 0000.0001) >   levels(1, 10)= 11.,
(PID.TID 0000.0001) >   fileFlags(10) = 'D       ',
(PID.TID 0000.0001) >#---
(PID.TID 0000.0001) >  frequency(11) = 2635200.0,
(PID.TID 0000.0001) >   fields(1:10,11) ='SRELAX  ','TRELAX  ','WTHMASS ','WSLTMASS',
(PID.TID 0000.0001) >                 'oceSflux','oceQnet ','SIatmQnt',
(PID.TID 0000.0001) >                 'SIaaflux','SIsnPrcp','SIacSubl',
(PID.TID 0000.0001) >#  filename(11) = 'budg2d_zflux_set2',
(PID.TID 0000.0001) >   fileFlags(11) = 'D       ',
(PID.TID 0000.0001) >#---
(PID.TID 0000.0001) >  frequency(12) = 2635200.0,
(PID.TID 0000.0001) >   fields(1:13,12) ='UVELMASS','VVELMASS',
(PID.TID 0000.0001) >                 'ADVx_TH ','ADVy_TH ','DFxE_TH ','DFyE_TH ',
(PID.TID 0000.0001) >                 'ADVx_SLT','ADVy_SLT','DFxE_SLT','DFyE_SLT',
(PID.TID 0000.0001) >                 'oceSPtnd','AB_gT   ','AB_gS   ',
(PID.TID 0000.0001) >#  filename(12) = 'budg2d_hflux_set3_11',
(PID.TID 0000.0001) >   levels(1:40,12) = 11.,12.,13.,14.,15.,16.,17.,18.,19.,20.,
(PID.TID 0000.0001) >                     21.,22.,23.,24.,25.,26.,27.,28.,29.,30.,
(PID.TID 0000.0001) >                     31.,32.,33.,34.,35.,36.,37.,38.,39.,40.,
(PID.TID 0000.0001) >                     41.,42.,43.,44.,45.,46.,47.,48.,49.,50.,
(PID.TID 0000.0001) >   fileFlags(12) = 'DI      ',
(PID.TID 0000.0001) >#---
(PID.TID 0000.0001) >  frequency(13) = -2635200.0,
(PID.TID 0000.0001) >   fields(1:2,13) = 'THETA   ','SALT    ',
(PID.TID 0000.0001) >#  filename(13) = 'budg2d_snap_set3_11',
(PID.TID 0000.0001) >   timePhase(13)= 0.,
(PID.TID 0000.0001) >   levels(1:40,13) = 11.,12.,13.,14.,15.,16.,17.,18.,19.,20.,
(PID.TID 0000.0001) >                     21.,22.,23.,24.,25.,26.,27.,28.,29.,30.,
(PID.TID 0000.0001) >                     31.,32.,33.,34.,35.,36.,37.,38.,39.,40.,
(PID.TID 0000.0001) >                     41.,42.,43.,44.,45.,46.,47.,48.,49.,50.,
(PID.TID 0000.0001) >   fileFlags(13) = 'DI      ',
(PID.TID 0000.0001) >#---
(PID.TID 0000.0001) >  frequency(14) = 2635200.0,
(PID.TID 0000.0001) >   fields(1:8,14) = 'DFxE_TH ','DFyE_TH ','ADVx_TH ','ADVy_TH ',
(PID.TID 0000.0001) >                 'DFxE_SLT','DFyE_SLT','ADVx_SLT','ADVy_SLT',
(PID.TID 0000.0001) >#  filename(14) = 'trsp_2d_set1',
(PID.TID 0000.0001) >#vertically integrate fields we only use to compute vertically integr.
(PID.TID 0000.0001) >#meridional transports (also omit vertical transports, both to save space)
(PID.TID 0000.0001) >   fileFlags(14) = ' I      ',
(PID.TID 0000.0001) >#---
(PID.TID 0000.0001) >  frequency(15) = 2635200.0,
(PID.TID 0000.0001) >   fields(1:3,15) = 'RHOAnoma','PHIHYD  ','oceSPtnd',
(PID.TID 0000.0001) >#  filename(15) = 'state_3d_set2',
(PID.TID 0000.0001) >#---
(PID.TID 0000.0001) >  frequency(16) = 2635200.0,
(PID.TID 0000.0001) >   fields(1:7,16) = 'ADVr_TH ','DFrE_TH ','DFrI_TH ',
(PID.TID 0000.0001) >        'ADVr_SLT','DFrE_SLT','DFrI_SLT','WVELMASS',
(PID.TID 0000.0001) >#  filename(16) = 'trsp_3d_set3',
(PID.TID 0000.0001) >#---
(PID.TID 0000.0001) >  frequency(17) = 2635200.0,
(PID.TID 0000.0001) >   fields(1:7,17) = 'TFLUX   ','SItflux ','SFLUX   ',
(PID.TID 0000.0001) >        'oceQsw  ','oceSPflx','SIsnPrcp','SIacSubl',
(PID.TID 0000.0001) >#  filename(17) = 'state_2d_set2',
(PID.TID 0000.0001) >#---
(PID.TID 0000.0001) > /
(PID.TID 0000.0001) >
(PID.TID 0000.0001) >#--------------------
(PID.TID 0000.0001) ># Parameter for Diagnostics of per level statistics:
(PID.TID 0000.0001) >#--------------------
(PID.TID 0000.0001) >#  diagSt_mnc (logical): write stat-diags to NetCDF files (default=diag_mnc)
(PID.TID 0000.0001) >#  diagSt_regMaskFile : file containing the region-mask to read-in
(PID.TID 0000.0001) >#  nSetRegMskFile   : number of region-mask sets within the region-mask file
(PID.TID 0000.0001) >#  set_regMask(i)   : region-mask set-index that identifies the region "i"
(PID.TID 0000.0001) >#  val_regMask(i)   : region "i" identifier value in the region mask
(PID.TID 0000.0001) >#--for each output-stream:
(PID.TID 0000.0001) >#  stat_fName(n) : prefix of the output file name (max 80c long) for outp.stream n
(PID.TID 0000.0001) >#  stat_freq(n):< 0 : write snap-shot output every |stat_freq| seconds
(PID.TID 0000.0001) >#               > 0 : write time-average output every stat_freq seconds
(PID.TID 0000.0001) >#  stat_phase(n)    : write at time = stat_phase + multiple of |stat_freq|
(PID.TID 0000.0001) >#  stat_region(:,n) : list of "regions" (default: 1 region only=global)
(PID.TID 0000.0001) >#  stat_fields(:,n) : list of selected diagnostics fields (8.c) in outp.stream n
(PID.TID 0000.0001) >#                (see "available_diagnostics.log" file for the full list of diags)
(PID.TID 0000.0001) >#--------------------
(PID.TID 0000.0001) > &DIAG_STATIS_PARMS
(PID.TID 0000.0001) ># diagSt_regMaskFile='basin_masks_eccollc_90x50.bin',
(PID.TID 0000.0001) ># nSetRegMskFile=1,
(PID.TID 0000.0001) ># set_regMask(1)= 1,  1,  1,  1,  1,  1,  1,  1,  1,
(PID.TID 0000.0001) >#                 1,  1,  1,  1,  1,  1,  1,  1
(PID.TID 0000.0001) ># val_regMask(1)= 1., 2., 3., 4., 5., 6., 7., 8., 9.,
(PID.TID 0000.0001) >#                10.,11.,12.,13.,14.,15.,16.,17.
(PID.TID 0000.0001) >##---
(PID.TID 0000.0001) ># stat_fields(1:8,1) = 'ETAN    ','ETANSQ  ','DETADT2 ',
(PID.TID 0000.0001) >#                      'UVEL    ','VVEL    ','WVEL    ',
(PID.TID 0000.0001) >#                      'THETA   ','SALT    ',
(PID.TID 0000.0001) >#    stat_fname(1)= 'dynStDiag',
(PID.TID 0000.0001) >#     stat_freq(1)= 3153600.,
(PID.TID 0000.0001) ># stat_region(1,1)=  1, 2, 3, 4, 5, 6, 7, 8, 9,
(PID.TID 0000.0001) >#                   10,11,12,13,14,15,16,17
(PID.TID 0000.0001) >##---
(PID.TID 0000.0001) ># stat_fields(1:9,2) = 'oceTAUX ','oceTAUY ',
(PID.TID 0000.0001) >#                      'surForcT','surForcS','TFLUX   ','SFLUX   ',
(PID.TID 0000.0001) >#                      'oceQnet ','oceSflux','oceFWflx',
(PID.TID 0000.0001) >#    stat_fname(2)= 'surfStDiag',
(PID.TID 0000.0001) >#     stat_freq(2)= 3153600.,
(PID.TID 0000.0001) ># stat_region(1,2)=  1, 2, 3, 4, 5, 6, 7, 8, 9,
(PID.TID 0000.0001) >#                   10,11,12,13,14,15,16,17
(PID.TID 0000.0001) > /
(PID.TID 0000.0001) 
(PID.TID 0000.0001) S/R DIAGNOSTICS_READPARMS, read namelist "diagnostics_list": start
(PID.TID 0000.0001) S/R DIAGNOSTICS_READPARMS, read namelist "diagnostics_list": OK
(PID.TID 0000.0001) S/R DIAGNOSTICS_READPARMS, read namelist "DIAG_STATIS_PARMS": start
(PID.TID 0000.0001) S/R DIAGNOSTICS_READPARMS, read namelist "DIAG_STATIS_PARMS": OK
(PID.TID 0000.0001)  DIAGNOSTICS_READPARMS: global parameter summary:
(PID.TID 0000.0001)  dumpAtLast = /* always write time-ave diags at the end */
(PID.TID 0000.0001)                   T
(PID.TID 0000.0001)     ;
(PID.TID 0000.0001)  diag_mnc =   /* write NetCDF output files */
(PID.TID 0000.0001)                   F
(PID.TID 0000.0001)     ;
(PID.TID 0000.0001)  diagMdsDir = /* directory for mds diagnostics output */
(PID.TID 0000.0001)               'diags'
(PID.TID 0000.0001)     ;
(PID.TID 0000.0001)  diagMdsDirCreate = /* call mkdir to create diagMdsDir */
(PID.TID 0000.0001)                   T
(PID.TID 0000.0001)     ;
(PID.TID 0000.0001)  useMissingValue = /* put MissingValue where mask = 0 */
(PID.TID 0000.0001)                   F
(PID.TID 0000.0001)     ;
(PID.TID 0000.0001)  diagCG_maxIters = /* max number of iters in diag_cg2d */
(PID.TID 0000.0001)                     300
(PID.TID 0000.0001)     ;
(PID.TID 0000.0001)  diagCG_resTarget = /* residual target for diag_cg2d */
(PID.TID 0000.0001)                 1.000000000000000E-07
(PID.TID 0000.0001)     ;
(PID.TID 0000.0001)  diagCG_pcOffDFac = /* preconditioner off-diagonal factor */
(PID.TID 0000.0001)                 9.611687812379854E-01
(PID.TID 0000.0001)     ;
(PID.TID 0000.0001) -----------------------------------------------------
(PID.TID 0000.0001)  DIAGNOSTICS_READPARMS: active diagnostics summary:
(PID.TID 0000.0001) -----------------------------------------------------
(PID.TID 0000.0001) Creating Output Stream: state_2d_set1
(PID.TID 0000.0001) Output Frequency:    2635200.000000 ; Phase:           0.000000
(PID.TID 0000.0001)  Averaging Freq.:    2635200.000000 , Phase:           0.000000 , Cycle:   1
(PID.TID 0000.0001)  missing value: -9.990000000000E+02
(PID.TID 0000.0001)  Levels:    will be set later
(PID.TID 0000.0001)  Fields:    ETAN     SIarea   SIheff   SIhsnow  DETADT2  PHIBOT   sIceLoad MXLDEPTH oceSPDep SIatmQnt
(PID.TID 0000.0001)  Fields:    SIatmFW  oceQnet  oceFWflx oceTAUX  oceTAUY  ADVxHEFF ADVyHEFF DFxEHEFF DFyEHEFF ADVxSNOW
(PID.TID 0000.0001)  Fields:    ADVySNOW DFxESNOW DFyESNOW SIuice   SIvice
(PID.TID 0000.0001) Creating Output Stream: state_3d_set1
(PID.TID 0000.0001) Output Frequency:    2635200.000000 ; Phase:           0.000000
(PID.TID 0000.0001)  Averaging Freq.:    2635200.000000 , Phase:           0.000000 , Cycle:   1
(PID.TID 0000.0001)  missing value: -9.990000000000E+02
(PID.TID 0000.0001)  Levels:    will be set later
(PID.TID 0000.0001)  Fields:    THETA    SALT     DRHODR
(PID.TID 0000.0001) Creating Output Stream: trsp_3d_set1
(PID.TID 0000.0001) Output Frequency:    2635200.000000 ; Phase:           0.000000
(PID.TID 0000.0001)  Averaging Freq.:    2635200.000000 , Phase:           0.000000 , Cycle:   1
(PID.TID 0000.0001)  missing value: -9.990000000000E+02
(PID.TID 0000.0001)  Levels:    will be set later
(PID.TID 0000.0001)  Fields:    UVELMASS VVELMASS WVELMASS GM_PsiX  GM_PsiY
(PID.TID 0000.0001) Creating Output Stream: trsp_3d_set2
(PID.TID 0000.0001) Output Frequency:    2635200.000000 ; Phase:           0.000000
(PID.TID 0000.0001)  Averaging Freq.:    2635200.000000 , Phase:           0.000000 , Cycle:   1
(PID.TID 0000.0001)  missing value: -9.990000000000E+02
(PID.TID 0000.0001)  Levels:    will be set later
(PID.TID 0000.0001)  Fields:    DFxE_TH  DFyE_TH  ADVx_TH  ADVy_TH  DFxE_SLT DFyE_SLT ADVx_SLT ADVy_SLT
(PID.TID 0000.0001) -----------------------------------------------------
(PID.TID 0000.0001)  DIAGNOSTICS_READPARMS: statistics diags. summary:
(PID.TID 0000.0001) -----------------------------------------------------
(PID.TID 0000.0001) 
(PID.TID 0000.0001) SET_PARMS: done
 ==> SYSTEM CALL (from DIAGNOSTICS_INI_IO): > mkdir -p diags <
(PID.TID 0000.0001) 
(PID.TID 0000.0001) Enter INI_VERTICAL_GRID: setInterFDr=    T ; setCenterDr=    F
(PID.TID 0000.0001) tile:   4 ; Read from file tile001.mitgrid
(PID.TID 0000.0001)   => xC yC dxF dyF rA xG yG dxV dyU rAz dxC dyC rAw rAs dxG dyG
(PID.TID 0000.0001) tile:   7 ; Read from file tile001.mitgrid
(PID.TID 0000.0001)   => xC yC dxF dyF rA xG yG dxV dyU rAz dxC dyC rAw rAs dxG dyG
(PID.TID 0000.0001) tile:   8 ; Read from file tile001.mitgrid
(PID.TID 0000.0001)   => xC yC dxF dyF rA xG yG dxV dyU rAz dxC dyC rAw rAs dxG dyG
(PID.TID 0000.0001) tile:   9 ; Read from file tile001.mitgrid
(PID.TID 0000.0001)   => xC yC dxF dyF rA xG yG dxV dyU rAz dxC dyC rAw rAs dxG dyG
(PID.TID 0000.0001) tile:  10 ; Read from file tile001.mitgrid
(PID.TID 0000.0001)   => xC yC dxF dyF rA xG yG dxV dyU rAz dxC dyC rAw rAs dxG dyG
(PID.TID 0000.0001) tile:  11 ; Read from file tile001.mitgrid
(PID.TID 0000.0001)   => xC yC dxF dyF rA xG yG dxV dyU rAz dxC dyC rAw rAs dxG dyG
(PID.TID 0000.0001) tile:  12 ; Read from file tile001.mitgrid
(PID.TID 0000.0001)   => xC yC dxF dyF rA xG yG dxV dyU rAz dxC dyC rAw rAs dxG dyG
(PID.TID 0000.0001) tile:  13 ; Read from file tile001.mitgrid
(PID.TID 0000.0001)   => xC yC dxF dyF rA xG yG dxV dyU rAz dxC dyC rAw rAs dxG dyG
(PID.TID 0000.0001) tile:  14 ; Read from file tile001.mitgrid
(PID.TID 0000.0001)   => xC yC dxF dyF rA xG yG dxV dyU rAz dxC dyC rAw rAs dxG dyG
(PID.TID 0000.0001) tile:  15 ; Read from file tile001.mitgrid
(PID.TID 0000.0001)   => xC yC dxF dyF rA xG yG dxV dyU rAz dxC dyC rAw rAs dxG dyG
(PID.TID 0000.0001) tile:  16 ; Read from file tile001.mitgrid
(PID.TID 0000.0001)   => xC yC dxF dyF rA xG yG dxV dyU rAz dxC dyC rAw rAs dxG dyG
(PID.TID 0000.0001) tile:  17 ; Read from file tile001.mitgrid
(PID.TID 0000.0001)   => xC yC dxF dyF rA xG yG dxV dyU rAz dxC dyC rAw rAs dxG dyG
(PID.TID 0000.0001) %MON XC_max                       =   1.7997758946678E+02
(PID.TID 0000.0001) %MON XC_min                       =  -1.7998895680928E+02
(PID.TID 0000.0001) %MON XC_mean                      =  -6.8997670631350E+00
(PID.TID 0000.0001) %MON XC_sd                        =   1.0548127462941E+02
(PID.TID 0000.0001) %MON XG_max                       =   1.8000000000000E+02
(PID.TID 0000.0001) %MON XG_min                       =  -1.7999919444240E+02
(PID.TID 0000.0001) %MON XG_mean                      =  -6.3521159278861E+00
(PID.TID 0000.0001) %MON XG_sd                        =   1.0549598176576E+02
(PID.TID 0000.0001) %MON DXC_max                      =   1.1117680031365E+05
(PID.TID 0000.0001) %MON DXC_min                      =   1.3362789164732E+04
(PID.TID 0000.0001) %MON DXC_mean                     =   7.1345115143606E+04
(PID.TID 0000.0001) %MON DXC_sd                       =   2.6107013089865E+04
(PID.TID 0000.0001) %MON DXF_max                      =   1.1117680031365E+05
(PID.TID 0000.0001) %MON DXF_min                      =   1.3491575949394E+04
(PID.TID 0000.0001) %MON DXF_mean                     =   7.1334806791260E+04
(PID.TID 0000.0001) %MON DXF_sd                       =   2.6121349328995E+04
(PID.TID 0000.0001) %MON DXG_max                      =   1.1117747335204E+05
(PID.TID 0000.0001) %MON DXG_min                      =   1.0930409249570E+04
(PID.TID 0000.0001) %MON DXG_mean                     =   7.1313583950284E+04
(PID.TID 0000.0001) %MON DXG_sd                       =   2.6131714747840E+04
(PID.TID 0000.0001) %MON DXV_max                      =   1.1117747335204E+05
(PID.TID 0000.0001) %MON DXV_min                      =   9.4742518926426E+03
(PID.TID 0000.0001) %MON DXV_mean                     =   7.1323777998314E+04
(PID.TID 0000.0001) %MON DXV_sd                       =   2.6117603792432E+04
(PID.TID 0000.0001) %MON YC_max                       =   8.9739397429324E+01
(PID.TID 0000.0001) %MON YC_min                       =  -8.1637173529390E+01
(PID.TID 0000.0001) %MON YC_mean                      =  -5.9338515025079E-01
(PID.TID 0000.0001) %MON YC_sd                        =   5.1058908630085E+01
(PID.TID 0000.0001) %MON YG_max                       =   9.0000000000000E+01
(PID.TID 0000.0001) %MON YG_min                       =  -8.1805478609906E+01
(PID.TID 0000.0001) %MON YG_mean                      =  -5.7357831765458E-01
(PID.TID 0000.0001) %MON YG_sd                        =   5.1060174609345E+01
(PID.TID 0000.0001) %MON DYC_max                      =   1.1117680031365E+05
(PID.TID 0000.0001) %MON DYC_min                      =   1.3362789164732E+04
(PID.TID 0000.0001) %MON DYC_mean                     =   7.0982792089666E+04
(PID.TID 0000.0001) %MON DYC_sd                       =   2.6607387075348E+04
(PID.TID 0000.0001) %MON DYF_max                      =   1.1117680031365E+05
(PID.TID 0000.0001) %MON DYF_min                      =   1.3491575949394E+04
(PID.TID 0000.0001) %MON DYF_mean                     =   7.1000127494934E+04
(PID.TID 0000.0001) %MON DYF_sd                       =   2.6603606017547E+04
(PID.TID 0000.0001) %MON DYG_max                      =   1.1117747335204E+05
(PID.TID 0000.0001) %MON DYG_min                      =   1.0930409249570E+04
(PID.TID 0000.0001) %MON DYG_mean                     =   7.1022116512585E+04
(PID.TID 0000.0001) %MON DYG_sd                       =   2.6571715830406E+04
(PID.TID 0000.0001) %MON DYU_max                      =   1.1117747335204E+05
(PID.TID 0000.0001) %MON DYU_min                      =   9.4742518926426E+03
(PID.TID 0000.0001) %MON DYU_mean                     =   7.1004694583927E+04
(PID.TID 0000.0001) %MON DYU_sd                       =   2.6575655787476E+04
(PID.TID 0000.0001) %MON RA_max                       =   1.1896090857160E+10
(PID.TID 0000.0001) %MON RA_min                       =   2.1263387742345E+08
(PID.TID 0000.0001) %MON RA_mean                      =   5.6344293572480E+09
(PID.TID 0000.0001) %MON RA_sd                        =   3.5929461176606E+09
(PID.TID 0000.0001) %MON RAW_max                      =   1.1896090856781E+10
(PID.TID 0000.0001) %MON RAW_min                      =   1.7369571508711E+08
(PID.TID 0000.0001) %MON RAW_mean                     =   5.6355850434318E+09
(PID.TID 0000.0001) %MON RAW_sd                       =   3.5915487677190E+09
(PID.TID 0000.0001) %MON RAS_max                      =   1.1896090856781E+10
(PID.TID 0000.0001) %MON RAS_min                      =   1.7369571508711E+08
(PID.TID 0000.0001) %MON RAS_mean                     =   5.6320332286162E+09
(PID.TID 0000.0001) %MON RAS_sd                       =   3.5937184228135E+09
(PID.TID 0000.0001) %MON RAZ_max                      =   1.1891903479271E+10
(PID.TID 0000.0001) %MON RAZ_min                      =   1.0413402423292E+08
(PID.TID 0000.0001) %MON RAZ_mean                     =   5.6331824674695E+09
(PID.TID 0000.0001) %MON RAZ_sd                       =   3.5923307220197E+09
(PID.TID 0000.0001) %MON AngleCS_max                  =   1.0000000000000E+00
(PID.TID 0000.0001) %MON AngleCS_min                  =  -9.9996641938864E-01
(PID.TID 0000.0001) %MON AngleCS_mean                 =   4.0572930529500E-01
(PID.TID 0000.0001) %MON AngleCS_sd                   =   5.3874397836718E-01
(PID.TID 0000.0001) %MON AngleSN_max                  =   9.9996641938864E-01
(PID.TID 0000.0001) %MON AngleSN_min                  =  -1.0000000000000E+00
(PID.TID 0000.0001) %MON AngleSN_mean                 =  -4.9986154624599E-01
(PID.TID 0000.0001) %MON AngleSN_sd                   =   5.4339404779819E-01
(PID.TID 0000.0001) 
(PID.TID 0000.0001) // =======================================================
(PID.TID 0000.0001) // Calendar configuration >>> START <<<
(PID.TID 0000.0001) // =======================================================
(PID.TID 0000.0001) 
(PID.TID 0000.0001) modelstart = /* Start time of the model integration [s] */
(PID.TID 0000.0001)                 3.600000000000000E+03
(PID.TID 0000.0001)     ;
(PID.TID 0000.0001) modelend  = /* End time of the model integration [s] */
(PID.TID 0000.0001)                 3.240000000000000E+04
(PID.TID 0000.0001)     ;
(PID.TID 0000.0001) modelStep = /* Time interval for a model forward step [s] */
(PID.TID 0000.0001)                 3.600000000000000E+03
(PID.TID 0000.0001)     ;
(PID.TID 0000.0001) usingGregorianCalendar= /* Calendar Type: Gregorian Calendar */
(PID.TID 0000.0001)                   T
(PID.TID 0000.0001)     ;
(PID.TID 0000.0001) usingJulianCalendar = /* Calendar Type: Julian Calendar */
(PID.TID 0000.0001)                   F
(PID.TID 0000.0001)     ;
(PID.TID 0000.0001) usingNoLeapYearCal  = /* Calendar Type: without Leap Year */
(PID.TID 0000.0001)                   F
(PID.TID 0000.0001)     ;
(PID.TID 0000.0001) usingModelCalendar  = /* Calendar Type: Model Calendar */
(PID.TID 0000.0001)                   F
(PID.TID 0000.0001)     ;
(PID.TID 0000.0001) modelStartDate YYYYMMDD = /* Model start date YYYY-MM-DD */
(PID.TID 0000.0001)                19920101
(PID.TID 0000.0001)     ;
(PID.TID 0000.0001)   modelStartDate HHMMSS = /* Model start date HH-MM-SS  */
(PID.TID 0000.0001)                  130000
(PID.TID 0000.0001)     ;
(PID.TID 0000.0001) modelEndDate   YYYYMMDD = /* Model end date YYYY-MM-DD */
(PID.TID 0000.0001)                19920101
(PID.TID 0000.0001)     ;
(PID.TID 0000.0001)   modelEndDate   HHMMSS = /* Model end date HH-MM-SS  */
(PID.TID 0000.0001)                  210000
(PID.TID 0000.0001)     ;
(PID.TID 0000.0001) intyears = /* Number of calendar years affected by the integration */
(PID.TID 0000.0001)                       1
(PID.TID 0000.0001)     ;
(PID.TID 0000.0001) intmonths= /* Number of calendar months affected by the integration */
(PID.TID 0000.0001)                       1
(PID.TID 0000.0001)     ;
(PID.TID 0000.0001) intdays = /* Number of calendar days affected by the integration */
(PID.TID 0000.0001)                       1
(PID.TID 0000.0001)     ;
(PID.TID 0000.0001) modelIter0 = /* Base timestep number  */
(PID.TID 0000.0001)                       1
(PID.TID 0000.0001)     ;
(PID.TID 0000.0001) modelIterEnd = /* Final timestep number  */
(PID.TID 0000.0001)                       9
(PID.TID 0000.0001)     ;
(PID.TID 0000.0001) modelIntSteps= /* Number of model timesteps  */
(PID.TID 0000.0001)                       8
(PID.TID 0000.0001)     ;
(PID.TID 0000.0001) 
(PID.TID 0000.0001) // =======================================================
(PID.TID 0000.0001) // Calendar configuration  >>> END <<<
(PID.TID 0000.0001) // =======================================================
(PID.TID 0000.0001) 
(PID.TID 0000.0001) GAD_INIT_FIXED: GAD_OlMinSize=  2  0  2
(PID.TID 0000.0001) 
(PID.TID 0000.0001) // ===================================
(PID.TID 0000.0001) // GAD parameters :
(PID.TID 0000.0001) // ===================================
(PID.TID 0000.0001) tempAdvScheme =   /* Temp. Horiz.Advection scheme selector */
(PID.TID 0000.0001)                      30
(PID.TID 0000.0001)     ;
(PID.TID 0000.0001) tempVertAdvScheme =   /* Temp. Vert. Advection scheme selector */
(PID.TID 0000.0001)                       3
(PID.TID 0000.0001)     ;
(PID.TID 0000.0001) tempMultiDimAdvec =   /* use Muti-Dim Advec method for Temp */
(PID.TID 0000.0001)                   T
(PID.TID 0000.0001)     ;
(PID.TID 0000.0001) tempSOM_Advection = /* use 2nd Order Moment Advection for Temp */
(PID.TID 0000.0001)                   F
(PID.TID 0000.0001)     ;
(PID.TID 0000.0001) AdamsBashforthGt = /* apply Adams-Bashforth extrapolation on Gt */
(PID.TID 0000.0001)                   F
(PID.TID 0000.0001)     ;
(PID.TID 0000.0001) AdamsBashforth_T = /* apply Adams-Bashforth extrapolation on Temp */
(PID.TID 0000.0001)                   F
(PID.TID 0000.0001)     ;
(PID.TID 0000.0001) saltAdvScheme =   /* Salt. Horiz.advection scheme selector */
(PID.TID 0000.0001)                      30
(PID.TID 0000.0001)     ;
(PID.TID 0000.0001) saltVertAdvScheme =   /* Salt. Vert. Advection scheme selector */
(PID.TID 0000.0001)                       3
(PID.TID 0000.0001)     ;
(PID.TID 0000.0001) saltMultiDimAdvec =   /* use Muti-Dim Advec method for Salt */
(PID.TID 0000.0001)                   T
(PID.TID 0000.0001)     ;
(PID.TID 0000.0001) saltSOM_Advection = /* use 2nd Order Moment Advection for Salt */
(PID.TID 0000.0001)                   F
(PID.TID 0000.0001)     ;
(PID.TID 0000.0001) AdamsBashforthGs = /* apply Adams-Bashforth extrapolation on Gs */
(PID.TID 0000.0001)                   F
(PID.TID 0000.0001)     ;
(PID.TID 0000.0001) AdamsBashforth_S = /* apply Adams-Bashforth extrapolation on Salt */
(PID.TID 0000.0001)                   F
(PID.TID 0000.0001)     ;
(PID.TID 0000.0001) // ===================================
(PID.TID 0000.0001) 
(PID.TID 0000.0001) // =======================================================
(PID.TID 0000.0001) // External forcing (EXF) configuration >>> START <<<
(PID.TID 0000.0001) // =======================================================
(PID.TID 0000.0001) 
(PID.TID 0000.0001)  EXF general parameters:
(PID.TID 0000.0001) 
(PID.TID 0000.0001) exf_iprec = /* exf file precision */
(PID.TID 0000.0001)                      32
(PID.TID 0000.0001)     ;
(PID.TID 0000.0001) useExfYearlyFields = /* add extension _YEAR to input file names */
(PID.TID 0000.0001)                   T
(PID.TID 0000.0001)     ;
(PID.TID 0000.0001) twoDigitYear = /* use 2-digit year extension */
(PID.TID 0000.0001)                   F
(PID.TID 0000.0001)     ;
(PID.TID 0000.0001) useExfCheckRange = /* check for fields range */
(PID.TID 0000.0001)                   F
(PID.TID 0000.0001)     ;
(PID.TID 0000.0001) exf_output_interp = /* output directly interpolation result */
(PID.TID 0000.0001)                   F
(PID.TID 0000.0001)     ;
(PID.TID 0000.0001) diags_opOceWeighted = /* weight flux diags by open-ocean fraction */
(PID.TID 0000.0001)                   T
(PID.TID 0000.0001)     ;
(PID.TID 0000.0001) exf_debugLev = /* select EXF-debug printing level */
(PID.TID 0000.0001)                       1
(PID.TID 0000.0001)     ;
(PID.TID 0000.0001) exf_monFreq  = /* EXF monitor frequency [ s ] */
(PID.TID 0000.0001)                 3.600000000000000E+03
(PID.TID 0000.0001)     ;
(PID.TID 0000.0001) exf_adjMonSelect = /* select group of exf AD-variables to monitor */
(PID.TID 0000.0001)                       1
(PID.TID 0000.0001)     ;
(PID.TID 0000.0001) repeatPeriod = /* period for cycling forcing dataset [ s ] */
(PID.TID 0000.0001)                 0.000000000000000E+00
(PID.TID 0000.0001)     ;
(PID.TID 0000.0001) climTempFreeze= /* Minimum climatological temperature [deg.C] */
(PID.TID 0000.0001)                -1.900000000000000E+00
(PID.TID 0000.0001)     ;
(PID.TID 0000.0001) windStressMax = /* Maximum absolute windstress [ Pa ] */
(PID.TID 0000.0001)                 2.000000000000000E+00
(PID.TID 0000.0001)     ;
(PID.TID 0000.0001) stressIsOnCgrid = /* set u,v_stress on Arakawa C-grid */
(PID.TID 0000.0001)                   F
(PID.TID 0000.0001)     ;
(PID.TID 0000.0001) rotateStressOnAgrid = /* rotate u,v_stress on Arakawa A-grid */
(PID.TID 0000.0001)                   F
(PID.TID 0000.0001)     ;
(PID.TID 0000.0001) cen2kel = /* conversion of deg. Centigrade to Kelvin [K] */
(PID.TID 0000.0001)                 2.731500000000000E+02
(PID.TID 0000.0001)     ;
(PID.TID 0000.0001) gravity_mks= /* gravitational acceleration [m/s^2] */
(PID.TID 0000.0001)                 9.810000000000000E+00
(PID.TID 0000.0001)     ;
(PID.TID 0000.0001) atmrho =  /* mean atmospheric density [kg/m^3] */
(PID.TID 0000.0001)                 1.200000000000000E+00
(PID.TID 0000.0001)     ;
(PID.TID 0000.0001) atmcp =  /* mean atmospheric specific heat [J/kg/K] */
(PID.TID 0000.0001)                 1.005000000000000E+03
(PID.TID 0000.0001)     ;
(PID.TID 0000.0001) flamb =  /* latent heat of evaporation [J/kg] */
(PID.TID 0000.0001)                 2.500000000000000E+06
(PID.TID 0000.0001)     ;
(PID.TID 0000.0001) flami =  /* latent heat of pure-ice melting [J/kg] */
(PID.TID 0000.0001)                 3.340000000000000E+05
(PID.TID 0000.0001)     ;
(PID.TID 0000.0001) cvapor_fac = /* const. for Saturation calculation [?] */
(PID.TID 0000.0001)                 6.403800000000000E+05
(PID.TID 0000.0001)     ;
(PID.TID 0000.0001) cvapor_exp = /* const. for Saturation calculation [?] */
(PID.TID 0000.0001)                 5.107400000000000E+03
(PID.TID 0000.0001)     ;
(PID.TID 0000.0001) cvapor_fac_ice= /* const. for Saturation calculation [?] */
(PID.TID 0000.0001)                 1.163780000000000E+07
(PID.TID 0000.0001)     ;
(PID.TID 0000.0001) cvapor_exp_ice= /* const. for Saturation calculation [?] */
(PID.TID 0000.0001)                 5.897800000000000E+03
(PID.TID 0000.0001)     ;
(PID.TID 0000.0001) humid_fac = /* humidity coef. in virtual temp. [(kg/kg)^-1] */
(PID.TID 0000.0001)                 6.060000000000000E-01
(PID.TID 0000.0001)     ;
(PID.TID 0000.0001) gamma_blk = /* adiabatic lapse rate [?] */
(PID.TID 0000.0001)                 1.000000000000000E-02
(PID.TID 0000.0001)     ;
(PID.TID 0000.0001) saltsat = /* reduction of Qsat over salty water [-] */
(PID.TID 0000.0001)                 9.800000000000000E-01
(PID.TID 0000.0001)     ;
(PID.TID 0000.0001) noNegativeEvap = /* prevent negative Evaporation */
(PID.TID 0000.0001)                   F
(PID.TID 0000.0001)     ;
(PID.TID 0000.0001) sstExtrapol = /* extrapolation coeff from lev. 1 & 2 to surf [-] */
(PID.TID 0000.0001)                 0.000000000000000E+00
(PID.TID 0000.0001)     ;
(PID.TID 0000.0001) cDrag_1 = /* coef used in drag calculation [m/s] */
(PID.TID 0000.0001)                 2.700000000000000E-03
(PID.TID 0000.0001)     ;
(PID.TID 0000.0001) cDrag_2 = /* coef used in drag calculation [-] */
(PID.TID 0000.0001)                 1.420000000000000E-04
(PID.TID 0000.0001)     ;
(PID.TID 0000.0001) cDrag_3 = /* coef used in drag calculation [s/m] */
(PID.TID 0000.0001)                 7.640000000000000E-05
(PID.TID 0000.0001)     ;
(PID.TID 0000.0001) cDrag_8 = /* coef used in drag calculation [(s/m)^6] */
(PID.TID 0000.0001)                 1.234567000000000E+05
(PID.TID 0000.0001)     ;
(PID.TID 0000.0001) cDragMax = /* maximum drag (Large and Yeager, 2009) [-] */
(PID.TID 0000.0001)                 1.234567000000000E+05
(PID.TID 0000.0001)     ;
(PID.TID 0000.0001) umax = /* at maximum wind (Large and Yeager, 2009) [m/s] */
(PID.TID 0000.0001)                 1.234567000000000E+05
(PID.TID 0000.0001)     ;
(PID.TID 0000.0001) cStanton_1 = /* coef used in Stanton number calculation [-] */
(PID.TID 0000.0001)                 3.270000000000000E-02
(PID.TID 0000.0001)     ;
(PID.TID 0000.0001) cStanton_2 = /* coef used in Stanton number calculation [-] */
(PID.TID 0000.0001)                 1.800000000000000E-02
(PID.TID 0000.0001)     ;
(PID.TID 0000.0001) cDalton = /* Dalton number [-] */
(PID.TID 0000.0001)                 3.460000000000000E-02
(PID.TID 0000.0001)     ;
(PID.TID 0000.0001) exf_scal_BulkCdn= /* Drag coefficient scaling factor [-] */
(PID.TID 0000.0001)                 1.000000000000000E+00
(PID.TID 0000.0001)     ;
(PID.TID 0000.0001) zolmin = /* minimum stability parameter [?] */
(PID.TID 0000.0001)                -1.000000000000000E+02
(PID.TID 0000.0001)     ;
(PID.TID 0000.0001) psim_fac = /* coef used in turbulent fluxes calculation [-] */
(PID.TID 0000.0001)                 5.000000000000000E+00
(PID.TID 0000.0001)     ;
(PID.TID 0000.0001) zref =  /* reference height [ m ] */
(PID.TID 0000.0001)                 1.000000000000000E+01
(PID.TID 0000.0001)     ;
(PID.TID 0000.0001) hu =  /* height of mean wind [ m ] */
(PID.TID 0000.0001)                 1.000000000000000E+01
(PID.TID 0000.0001)     ;
(PID.TID 0000.0001) ht =  /* height of mean temperature [ m ] */
(PID.TID 0000.0001)                 2.000000000000000E+00
(PID.TID 0000.0001)     ;
(PID.TID 0000.0001) hq =  /* height of mean spec.humidity [ m ] */
(PID.TID 0000.0001)                 2.000000000000000E+00
(PID.TID 0000.0001)     ;
(PID.TID 0000.0001) uMin = /* minimum wind speed [m/s] */
(PID.TID 0000.0001)                 5.000000000000000E-01
(PID.TID 0000.0001)     ;
(PID.TID 0000.0001) useStabilityFct_overIce= /* transfert Coeffs over sea-ice depend on stability */
(PID.TID 0000.0001)                   F
(PID.TID 0000.0001)     ;
(PID.TID 0000.0001) exf_iceCd = /* drag coefficient over sea-ice (fixed) [-] */
(PID.TID 0000.0001)                 1.630000000000000E-03
(PID.TID 0000.0001)     ;
(PID.TID 0000.0001) exf_iceCe = /* transfert coeff. over sea-ice, for Evap (fixed) [-] */
(PID.TID 0000.0001)                 1.630000000000000E-03
(PID.TID 0000.0001)     ;
(PID.TID 0000.0001) exf_iceCh = /* transfert coeff. over sea-ice, Sens.Heat.(fixed)[-] */
(PID.TID 0000.0001)                 1.630000000000000E-03
(PID.TID 0000.0001)     ;
(PID.TID 0000.0001) exf_albedo =  /* Sea-water albedo [-] */
(PID.TID 0000.0001)                 1.000000000000000E-01
(PID.TID 0000.0001)     ;
(PID.TID 0000.0001) useExfZenAlbedo = /* Sea-water albedo varies with zenith angle */
(PID.TID 0000.0001)                   T
(PID.TID 0000.0001)     ;
(PID.TID 0000.0001) select_ZenAlbedo = /* Sea-water albedo computation method */
(PID.TID 0000.0001)                       1
(PID.TID 0000.0001)     ;
(PID.TID 0000.0001) useExfZenIncoming = /* compute incoming solar radiation */
(PID.TID 0000.0001)                   T
(PID.TID 0000.0001)     ;
(PID.TID 0000.0001) ocean_emissivity = /* longwave ocean-surface emissivity [-] */
(PID.TID 0000.0001)                 9.700000000000000E-01
(PID.TID 0000.0001)     ;
(PID.TID 0000.0001) ice_emissivity = /* longwave seaice emissivity [-] */
(PID.TID 0000.0001)                 9.500000000000000E-01
(PID.TID 0000.0001)     ;
(PID.TID 0000.0001) snow_emissivity = /* longwave snow  emissivity [-] */
(PID.TID 0000.0001)                 9.500000000000000E-01
(PID.TID 0000.0001)     ;
(PID.TID 0000.0001) 
(PID.TID 0000.0001)  EXF main CPP flags:
(PID.TID 0000.0001) 
(PID.TID 0000.0001) // USE_EXF_INTERPOLATION:              defined
(PID.TID 0000.0001) // ALLOW_ATM_TEMP:                     defined
(PID.TID 0000.0001) // ALLOW_ATM_WIND (useAtmWind):    NOT defined
(PID.TID 0000.0001) // ALLOW_DOWNWARD_RADIATION:           defined
(PID.TID 0000.0001) // ALLOW_BULKFORMULAE:                 defined
(PID.TID 0000.0001) 
(PID.TID 0000.0001)    Zonal wind stress forcing starts at               10800.
(PID.TID 0000.0001)    Zonal wind stress forcing period is               21600.
(PID.TID 0000.0001)    Zonal wind stress forcing repeat-cycle is             0.
(PID.TID 0000.0001)    Zonal wind stress forcing is read from file:
(PID.TID 0000.0001)    >> EIG_ustr <<
(PID.TID 0000.0001)    interpolate "ustress" (method= 12 ):
(PID.TID 0000.0001)    lon0=   0.00000, nlon=   512, lon_inc= 0.7031250
(PID.TID 0000.0001)    lat0= -89.46282, nlat=   256, inc(min,max)= 0.69587 0.70174
(PID.TID 0000.0001) 
(PID.TID 0000.0001)    Meridional wind stress forcing starts at          10800.
(PID.TID 0000.0001)    Meridional wind stress forcing period is          21600.
(PID.TID 0000.0001)    Meridional wind stress forcing rep-cycle is           0.
(PID.TID 0000.0001)    Meridional wind stress forcing is read from file:
(PID.TID 0000.0001)    >> EIG_vstr <<
(PID.TID 0000.0001)    interpolate "vstress" (method= 22 ):
(PID.TID 0000.0001)    lon0=   0.00000, nlon=   512, lon_inc= 0.7031250
(PID.TID 0000.0001)    lat0= -89.46282, nlat=   256, inc(min,max)= 0.69587 0.70174
(PID.TID 0000.0001)     Interp. U & V comp. together: uvInterp_stress =    T
(PID.TID 0000.0001) 
(PID.TID 0000.0001)    Surface wind speed starts at                      10800.
(PID.TID 0000.0001)    Surface wind speed period is                      21600.
(PID.TID 0000.0001)    Surface wind speed repeat-cycle is                    0.
(PID.TID 0000.0001)    Surface wind speed is read from file:
(PID.TID 0000.0001)    >> EIG_wspeed <<
(PID.TID 0000.0001)    interpolate "wspeed" (method=  1 ):
(PID.TID 0000.0001)    lon0=   0.00000, nlon=   512, lon_inc= 0.7031250
(PID.TID 0000.0001)    lat0= -89.46282, nlat=   256, inc(min,max)= 0.69587 0.70174
(PID.TID 0000.0001) 
(PID.TID 0000.0001)    Atmospheric temperature starts at                 10800.
(PID.TID 0000.0001)    Atmospheric temperature period is                 21600.
(PID.TID 0000.0001)    Atmospheric temperature repeat-cycle is               0.
(PID.TID 0000.0001)    Atmospheric temperature is read from file:
(PID.TID 0000.0001)    >> EIG_tmp2m_degC <<
(PID.TID 0000.0001)    interpolate "atemp" (method=  1 ):
(PID.TID 0000.0001)    lon0=   0.00000, nlon=   512, lon_inc= 0.7031250
(PID.TID 0000.0001)    lat0= -89.46282, nlat=   256, inc(min,max)= 0.69587 0.70174
(PID.TID 0000.0001) 
(PID.TID 0000.0001)    Atmospheric specific humidity starts at           10800.
(PID.TID 0000.0001)    Atmospheric specific humidity period is           21600.
(PID.TID 0000.0001)    Atmospheric specific humidity rep-cycle is            0.
(PID.TID 0000.0001)    Atmospheric specific humidity is read from file:
(PID.TID 0000.0001)    >> EIG_spfh2m <<
(PID.TID 0000.0001)    interpolate "aqh" (method=  1 ):
(PID.TID 0000.0001)    lon0=   0.00000, nlon=   512, lon_inc= 0.7031250
(PID.TID 0000.0001)    lat0= -89.46282, nlat=   256, inc(min,max)= 0.69587 0.70174
(PID.TID 0000.0001) 
(PID.TID 0000.0001) // ALLOW_READ_TURBFLUXES:          NOT defined
(PID.TID 0000.0001) // EXF_READ_EVAP:                  NOT defined
(PID.TID 0000.0001) 
(PID.TID 0000.0001)    Precipitation data starts at                      10800.
(PID.TID 0000.0001)    Precipitation data period is                      21600.
(PID.TID 0000.0001)    Precipitation data repeat-cycle is                    0.
(PID.TID 0000.0001)    Precipitation data is read from file:
(PID.TID 0000.0001)    >> EIG_rain <<
(PID.TID 0000.0001)    interpolate "precip" (method=  1 ):
(PID.TID 0000.0001)    lon0=   0.00000, nlon=   512, lon_inc= 0.7031250
(PID.TID 0000.0001)    lat0= -89.46282, nlat=   256, inc(min,max)= 0.69587 0.70174
(PID.TID 0000.0001) 
(PID.TID 0000.0001) // ALLOW_RUNOFF:                       defined
(PID.TID 0000.0001)    Runoff data period is                               -12.
(PID.TID 0000.0001)    Runoff data is read from file:
(PID.TID 0000.0001)    >> runoff-2d-Fekete-1deg-mon-V4-SMOOTH.bin <<
(PID.TID 0000.0001)    assume "runoff" on model-grid (no interpolation)
(PID.TID 0000.0001) 
(PID.TID 0000.0001) // ALLOW_RUNOFTEMP:                NOT defined
(PID.TID 0000.0001) // ALLOW_SALTFLX:                      defined
(PID.TID 0000.0001) 
(PID.TID 0000.0001)    Downward shortwave flux starts at                 10800.
(PID.TID 0000.0001)    Downward shortwave flux period is                 21600.
(PID.TID 0000.0001)    Downward shortwave flux repeat-cycle is               0.
(PID.TID 0000.0001)    Downward shortwave flux is read from file:
(PID.TID 0000.0001)    >> EIG_dsw <<
(PID.TID 0000.0001)    interpolate "swdown" (method=  1 ):
(PID.TID 0000.0001)    lon0=   0.00000, nlon=   512, lon_inc= 0.7031250
(PID.TID 0000.0001)    lat0= -89.46282, nlat=   256, inc(min,max)= 0.69587 0.70174
(PID.TID 0000.0001) 
(PID.TID 0000.0001)    Downward longwave flux starts at                  10800.
(PID.TID 0000.0001)    Downward longwave flux period is                  21600.
(PID.TID 0000.0001)    Downward longwave flux repeat-cycle is                0.
(PID.TID 0000.0001)    Downward longwave flux is read from file:
(PID.TID 0000.0001)    >> EIG_dlw <<
(PID.TID 0000.0001)    interpolate "lwdown" (method=  1 ):
(PID.TID 0000.0001)    lon0=   0.00000, nlon=   512, lon_inc= 0.7031250
(PID.TID 0000.0001)    lat0= -89.46282, nlat=   256, inc(min,max)= 0.69587 0.70174
(PID.TID 0000.0001) 
(PID.TID 0000.0001) // =======================================================
(PID.TID 0000.0001) // External forcing (EXF) climatology configuration :
(PID.TID 0000.0001) // =======================================================
(PID.TID 0000.0001) 
(PID.TID 0000.0001) // ALLOW_CLIMSST_RELAXATION:           defined
(PID.TID 0000.0001)    climsst relaxation is NOT used
(PID.TID 0000.0001) 
(PID.TID 0000.0001) // ALLOW_CLIMSSS_RELAXATION:           defined
(PID.TID 0000.0001)    climsss relaxation is NOT used
(PID.TID 0000.0001) 
(PID.TID 0000.0001) // =======================================================
(PID.TID 0000.0001) // External forcing (EXF) configuration  >>> END <<<
(PID.TID 0000.0001) // =======================================================
(PID.TID 0000.0001) 
(PID.TID 0000.0001) 
(PID.TID 0000.0001) // =======================================================
(PID.TID 0000.0001) // ECCO configuration >>> START <<<
(PID.TID 0000.0001) // =======================================================
(PID.TID 0000.0001) 
(PID.TID 0000.0001) gencost( 7) = thetaclim
(PID.TID 0000.0001) -------------
(PID.TID 0000.0001)  data file = some_T_atlas.bin
(PID.TID 0000.0001)  model file = m_theta_mon
(PID.TID 0000.0001)  error file = sigma_T_atlas2_eccollc.bin
(PID.TID 0000.0001)  preprocess = clim
(PID.TID 0000.0001)  gencost_flag =  1
(PID.TID 0000.0001)  gencost_outputlevel =  1
(PID.TID 0000.0001)  gencost_kLev_select =  1
(PID.TID 0000.0001)  gencost_pointer3d =  1
(PID.TID 0000.0001) 
(PID.TID 0000.0001) gencost( 8) = saltclim
(PID.TID 0000.0001) -------------
(PID.TID 0000.0001)  data file = some_S_atlas.bin
(PID.TID 0000.0001)  model file = m_salt_mon
(PID.TID 0000.0001)  error file = sigma_S_atlas2_eccollc.bin
(PID.TID 0000.0001)  preprocess = clim
(PID.TID 0000.0001)  gencost_flag =  1
(PID.TID 0000.0001)  gencost_outputlevel =  1
(PID.TID 0000.0001)  gencost_kLev_select =  1
(PID.TID 0000.0001)  gencost_pointer3d =  2
(PID.TID 0000.0001) 
(PID.TID 0000.0001) gencost(11) = sshv4-mdt
(PID.TID 0000.0001) -------------
(PID.TID 0000.0001)  data file = mdt_pak09.bin
(PID.TID 0000.0001)  model file =
(PID.TID 0000.0001)  error file = sigma_MDT_glob_eccollc.bin
(PID.TID 0000.0001)  posprocess = smooth
(PID.TID 0000.0001)  gencost_flag = -1
(PID.TID 0000.0001)  gencost_outputlevel =  1
(PID.TID 0000.0001)  gencost_kLev_select =  1
(PID.TID 0000.0001)  skip barfile write =  T
(PID.TID 0000.0001) 
(PID.TID 0000.0001) gencost(15) = sshv4-lsc
(PID.TID 0000.0001) -------------
(PID.TID 0000.0001)  model file =
(PID.TID 0000.0001)  error file = slaerr_largescale_r5.err
(PID.TID 0000.0001)  posprocess = smooth
(PID.TID 0000.0001)  gencost_flag = -1
(PID.TID 0000.0001)  gencost_outputlevel =  1
(PID.TID 0000.0001)  gencost_kLev_select =  1
(PID.TID 0000.0001)  skip barfile write =  T
(PID.TID 0000.0001) 
(PID.TID 0000.0001) gencost(16) = sshv4-gmsl
(PID.TID 0000.0001) -------------
(PID.TID 0000.0001)  model file =
(PID.TID 0000.0001)  error file =
(PID.TID 0000.0001)  gencost_flag = -1
(PID.TID 0000.0001)  gencost_outputlevel =  1
(PID.TID 0000.0001)  gencost_kLev_select =  1
(PID.TID 0000.0001)  skip barfile write =  T
(PID.TID 0000.0001) 
(PID.TID 0000.0001) gencost(17) = sss_repeat
(PID.TID 0000.0001) -------------
(PID.TID 0000.0001)  data file = some_S_atlas.bin
(PID.TID 0000.0001)  model file = m_salt_mon
(PID.TID 0000.0001)  error file = sigma_surf_0p5.bin
(PID.TID 0000.0001)  gencost_flag =  1
(PID.TID 0000.0001)  gencost_outputlevel =  0
(PID.TID 0000.0001)  gencost_kLev_select =  1
(PID.TID 0000.0001)  gencost_pointer3d =  3
(PID.TID 0000.0001)  skip barfile write =  T
(PID.TID 0000.0001) 
(PID.TID 0000.0001) 
(PID.TID 0000.0001) 
(PID.TID 0000.0001) // =======================================================
(PID.TID 0000.0001) // ECCO configuration  >>> END <<<
(PID.TID 0000.0001) // =======================================================
(PID.TID 0000.0001) 
(PID.TID 0000.0001) 
(PID.TID 0000.0001) // =======================================================
(PID.TID 0000.0001) // insitu profiles model sampling >>> START <<<
(PID.TID 0000.0001) // =======================================================
(PID.TID 0000.0001) 
(PID.TID 0000.0001) 
(PID.TID 0000.0001)   profilesDir ./
(PID.TID 0000.0001)   profilesDoGenGrid      T
(PID.TID 0000.0001)   profilesDoNcOutput     F
(PID.TID 0000.0001) 
(PID.TID 0000.0001) 
(PID.TID 0000.0001) // =======================================================
(PID.TID 0000.0001) // insitu profiles model sampling >>> END <<<
(PID.TID 0000.0001) // =======================================================
(PID.TID 0000.0001) 
(PID.TID 0000.0001) // =======================================================
(PID.TID 0000.0001) // Seaice configuration (SEAICE_PARM01) >>> START <<<
(PID.TID 0000.0001) // =======================================================
(PID.TID 0000.0001) 
(PID.TID 0000.0001)    Seaice time stepping configuration   > START <
(PID.TID 0000.0001)    ----------------------------------------------
(PID.TID 0000.0001) SEAICE_deltaTtherm= /* thermodynamic timestep */
(PID.TID 0000.0001)                 3.600000000000000E+03
(PID.TID 0000.0001)     ;
(PID.TID 0000.0001) SEAICE_deltaTdyn  = /* dynamic timestep */
(PID.TID 0000.0001)                 3.600000000000000E+03
(PID.TID 0000.0001)     ;
(PID.TID 0000.0001) SEAICE_deltaTevp  = /* EVP timestep */
(PID.TID 0000.0001)                 1.234567000000000E+05
(PID.TID 0000.0001)     ;
(PID.TID 0000.0001) SEAICEuseBDF2  = /* use backw. differencing for mom. eq. */
(PID.TID 0000.0001)                   F
(PID.TID 0000.0001)     ;
(PID.TID 0000.0001) SEAICEupdateOceanStress= /* update Ocean surf. stress */
(PID.TID 0000.0001)                   T
(PID.TID 0000.0001)     ;
(PID.TID 0000.0001) SEAICErestoreUnderIce  = /* restore T and S under ice */
(PID.TID 0000.0001)                   T
(PID.TID 0000.0001)     ;
(PID.TID 0000.0001) 
(PID.TID 0000.0001)    Seaice dynamics configuration   > START <
(PID.TID 0000.0001)    ------------------------------------------
(PID.TID 0000.0001) SEAICEuseDYNAMICS = /* use dynamics */
(PID.TID 0000.0001)                   T
(PID.TID 0000.0001)     ;
(PID.TID 0000.0001) model grid type   = /* type of sea ice model grid */
(PID.TID 0000.0001)               'C-GRID'
(PID.TID 0000.0001)     ;
(PID.TID 0000.0001) SEAICEuseStrImpCpl = /* use strongly implicit coupling */
(PID.TID 0000.0001)                   F
(PID.TID 0000.0001)     ;
(PID.TID 0000.0001) SEAICEusePicardAsPrecon = /* Picard as preconditioner */
(PID.TID 0000.0001)                   F
(PID.TID 0000.0001)     ;
(PID.TID 0000.0001) SEAICEuseLSR      = /* use default Picard-LSR solver */
(PID.TID 0000.0001)                   T
(PID.TID 0000.0001)     ;
(PID.TID 0000.0001) SEAICEuseKrylov   = /* use Picard-Krylov solver */
(PID.TID 0000.0001)                   F
(PID.TID 0000.0001)     ;
(PID.TID 0000.0001) SEAICEuseEVP      = /* use EVP solver rather than LSR */
(PID.TID 0000.0001)                   F
(PID.TID 0000.0001)     ;
(PID.TID 0000.0001) SEAICEuseJFNK     = /* use JFNK solver */
(PID.TID 0000.0001)                   F
(PID.TID 0000.0001)     ;
(PID.TID 0000.0001) SEAICEuseFREEDRIFT = /* use free drift solution */
(PID.TID 0000.0001)                   F
(PID.TID 0000.0001)     ;
(PID.TID 0000.0001) OCEAN_drag        = /* air-ocean drag coefficient */
(PID.TID 0000.0001)                 1.000000000000000E-03
(PID.TID 0000.0001)     ;
(PID.TID 0000.0001) SEAICE_drag       = /* air-ice drag coefficient */
(PID.TID 0000.0001)                 1.000000000000000E-03
(PID.TID 0000.0001)     ;
(PID.TID 0000.0001) SEAICE_drag_south      = /* Southern Ocean SEAICE_drag */
(PID.TID 0000.0001)                 2.000000000000000E-03
(PID.TID 0000.0001)     ;
(PID.TID 0000.0001) SEAICE_waterDrag  = /* water-ice drag (no units) */
(PID.TID 0000.0001)                 5.344995140913508E-03
(PID.TID 0000.0001)     ;
(PID.TID 0000.0001) SEAICE_waterDrag_south = /* Southern Ocean waterDrag (no units) */
(PID.TID 0000.0001)                 5.344995140913508E-03
(PID.TID 0000.0001)     ;
(PID.TID 0000.0001) SEAICEdWatMin = /* minimum linear water-ice drag (in m/s) */
(PID.TID 0000.0001)                 2.500000000000000E-01
(PID.TID 0000.0001)     ;
(PID.TID 0000.0001) SEAICEuseTilt     = /* include surface tilt in dyna. */
(PID.TID 0000.0001)                   F
(PID.TID 0000.0001)     ;
(PID.TID 0000.0001) SEAICEuseTEM      = /* use truncated ellipse rheology */
(PID.TID 0000.0001)                   F
(PID.TID 0000.0001)     ;
(PID.TID 0000.0001) SEAICE_strength   = /* sea-ice strength Pstar */
(PID.TID 0000.0001)                 2.250000000000000E+04
(PID.TID 0000.0001)     ;
(PID.TID 0000.0001) SEAICE_cStar      = /* sea-ice strength parameter cStar */
(PID.TID 0000.0001)                 2.000000000000000E+01
(PID.TID 0000.0001)     ;
(PID.TID 0000.0001) SEAICEpressReplFac= /* press. replacement method factor */
(PID.TID 0000.0001)                 1.000000000000000E+00
(PID.TID 0000.0001)     ;
(PID.TID 0000.0001) SEAICE_tensilFac  = /* sea-ice tensile strength factor */
(PID.TID 0000.0001)                 0.000000000000000E+00
(PID.TID 0000.0001)     ;
(PID.TID 0000.0001) SEAICE_tensilDepth= /* crit. depth for tensile strength */
(PID.TID 0000.0001)                 0.000000000000000E+00
(PID.TID 0000.0001)     ;
(PID.TID 0000.0001) SEAICEpresH0   = /* sea-ice strength Heff threshold */
(PID.TID 0000.0001)                 2.000000000000000E+00
(PID.TID 0000.0001)     ;
(PID.TID 0000.0001) SEAICEpresPow0 = /* exponent for Heff<SEAICEpresH0 */
(PID.TID 0000.0001)                       1
(PID.TID 0000.0001)     ;
(PID.TID 0000.0001) SEAICEpresPow1 = /* exponent for Heff>SEAICEpresH0 */
(PID.TID 0000.0001)                       1
(PID.TID 0000.0001)     ;
(PID.TID 0000.0001) SEAICEetaZmethod = /* method computing eta at Z-point */
(PID.TID 0000.0001)                       0
(PID.TID 0000.0001)     ;
(PID.TID 0000.0001) SEAICE_zetaMaxFac = /* factor for upper viscosity bound */
(PID.TID 0000.0001)                 2.500000000000000E+08
(PID.TID 0000.0001)     ;
(PID.TID 0000.0001) SEAICE_zetaMin    = /* lower bound for viscosity */
(PID.TID 0000.0001)                 0.000000000000000E+00
(PID.TID 0000.0001)     ;
(PID.TID 0000.0001) SEAICE_eccen    = /* elliptical yield curve eccent */
(PID.TID 0000.0001)                 2.000000000000000E+00
(PID.TID 0000.0001)     ;
(PID.TID 0000.0001) SEAICEstressFactor    = /* wind stress scaling factor */
(PID.TID 0000.0001)                 1.000000000000000E+00
(PID.TID 0000.0001)     ;
(PID.TID 0000.0001) SEAICE_airTurnAngle    = /* air-ice turning angle */
(PID.TID 0000.0001)                 0.000000000000000E+00
(PID.TID 0000.0001)     ;
(PID.TID 0000.0001) SEAICE_waterTurnAngle  = /* ice-water turning angle */
(PID.TID 0000.0001)                 0.000000000000000E+00
(PID.TID 0000.0001)     ;
(PID.TID 0000.0001) SEAICEuseMetricTerms = /* use metric terms */
(PID.TID 0000.0001)                   T
(PID.TID 0000.0001)     ;
(PID.TID 0000.0001) SEAICE_no_slip    = /* no slip boundary conditions */
(PID.TID 0000.0001)                   T
(PID.TID 0000.0001)     ;
(PID.TID 0000.0001) SEAICE_2ndOrderBC = /* 2nd order no slip boundary conditions */
(PID.TID 0000.0001)                   F
(PID.TID 0000.0001)     ;
(PID.TID 0000.0001) SEAICE_clipVeloctities = /* impose max. vels. */
(PID.TID 0000.0001)                   T
(PID.TID 0000.0001)     ;
(PID.TID 0000.0001) useHB87stressCoupling  = /* altern. ice-ocean stress */
(PID.TID 0000.0001)                   F
(PID.TID 0000.0001)     ;
(PID.TID 0000.0001) SEAICEscaleSurfStress  = /* scale atm. and ocean-surface stress with AREA */
(PID.TID 0000.0001)                   F
(PID.TID 0000.0001)     ;
(PID.TID 0000.0001) SEAICE_maskRHS    = /* mask RHS of solver */
(PID.TID 0000.0001)                   F
(PID.TID 0000.0001)     ;
(PID.TID 0000.0001) SEAICEaddSnowMass = /* add snow mass to seaiceMassC/U/V */
(PID.TID 0000.0001)                   F
(PID.TID 0000.0001)     ;
(PID.TID 0000.0001) LSR_mixIniGuess = /* mix free-drift sol. into LSR initial Guess */
(PID.TID 0000.0001)                       0
(PID.TID 0000.0001)     ;
(PID.TID 0000.0001) SEAICE_LSRrelaxU  = /* LSR solver: relaxation parameter */
(PID.TID 0000.0001)                 9.500000000000000E-01
(PID.TID 0000.0001)     ;
(PID.TID 0000.0001) SEAICE_LSRrelaxV  = /* LSR solver: relaxation parameter */
(PID.TID 0000.0001)                 9.500000000000000E-01
(PID.TID 0000.0001)     ;
(PID.TID 0000.0001) LSR_ERROR         = /* sets accuracy of LSR solver */
(PID.TID 0000.0001)                 2.000000000000000E-04
(PID.TID 0000.0001)     ;
(PID.TID 0000.0001) SOLV_NCHECK       = /* test interval for LSR solver */
(PID.TID 0000.0001)                       2
(PID.TID 0000.0001)     ;
(PID.TID 0000.0001) SEAICEuseMultiTileSolver = /* use full domain tri-diag solver */
(PID.TID 0000.0001)                   F
(PID.TID 0000.0001)     ;
(PID.TID 0000.0001) SEAICE_OLx = /* overlap for LSR/preconditioner */
(PID.TID 0000.0001)                       0
(PID.TID 0000.0001)     ;
(PID.TID 0000.0001) SEAICE_OLy = /* overlap for LSR/preconditioner */
(PID.TID 0000.0001)                       0
(PID.TID 0000.0001)     ;
(PID.TID 0000.0001) SEAICEnonLinIterMax = /* max. number of nonlinear solver steps */
(PID.TID 0000.0001)                       2
(PID.TID 0000.0001)     ;
(PID.TID 0000.0001) SEAICElinearIterMax = /* max. number of linear solver steps */
(PID.TID 0000.0001)                     500
(PID.TID 0000.0001)     ;
(PID.TID 0000.0001) SEAICEnonLinTol     = /* non-linear solver tolerance */
(PID.TID 0000.0001)                 0.000000000000000E+00
(PID.TID 0000.0001)     ;
(PID.TID 0000.0001) 
(PID.TID 0000.0001)    Seaice advection diffusion config,   > START <
(PID.TID 0000.0001)    -----------------------------------------------
(PID.TID 0000.0001) SEAICEmomAdvection = /* advect sea ice momentum */
(PID.TID 0000.0001)                   F
(PID.TID 0000.0001)     ;
(PID.TID 0000.0001) SEAICEadvHeff = /* advect effective ice thickness */
(PID.TID 0000.0001)                   T
(PID.TID 0000.0001)     ;
(PID.TID 0000.0001) SEAICEadvArea = /* advect fractional ice area */
(PID.TID 0000.0001)                   T
(PID.TID 0000.0001)     ;
(PID.TID 0000.0001) SEAICEadvSnow = /* advect snow layer together with ice */
(PID.TID 0000.0001)                   T
(PID.TID 0000.0001)     ;
(PID.TID 0000.0001) SEAICEadvScheme   = /* advection scheme for ice */
(PID.TID 0000.0001)                      30
(PID.TID 0000.0001)     ;
(PID.TID 0000.0001) SEAICEadvSchArea   = /* advection scheme for area */
(PID.TID 0000.0001)                      30
(PID.TID 0000.0001)     ;
(PID.TID 0000.0001) SEAICEadvSchHeff   = /* advection scheme for thickness */
(PID.TID 0000.0001)                      30
(PID.TID 0000.0001)     ;
(PID.TID 0000.0001) SEAICEadvSchSnow   = /* advection scheme for snow */
(PID.TID 0000.0001)                      30
(PID.TID 0000.0001)     ;
(PID.TID 0000.0001) SEAICEdiffKhArea   = /* diffusivity (m^2/s) for area */
(PID.TID 0000.0001)                 4.000000000000000E+02
(PID.TID 0000.0001)     ;
(PID.TID 0000.0001) SEAICEdiffKhHeff   = /* diffusivity (m^2/s) for heff */
(PID.TID 0000.0001)                 4.000000000000000E+02
(PID.TID 0000.0001)     ;
(PID.TID 0000.0001) SEAICEdiffKhSnow   = /* diffusivity (m^2/s) for snow */
(PID.TID 0000.0001)                 4.000000000000000E+02
(PID.TID 0000.0001)     ;
(PID.TID 0000.0001) DIFF1             = /* parameter used in advect.F [m/s] */
(PID.TID 0000.0001)                 0.000000000000000E+00
(PID.TID 0000.0001)     ;
(PID.TID 0000.0001) 
(PID.TID 0000.0001)    Seaice thermodynamics configuration   > START <
(PID.TID 0000.0001)    -----------------------------------------------
(PID.TID 0000.0001) SEAICE_rhoIce     = /* density of sea ice (kg/m3) */
(PID.TID 0000.0001)                 9.100000000000000E+02
(PID.TID 0000.0001)     ;
(PID.TID 0000.0001) SEAICE_rhoSnow    = /* density of snow (kg/m3) */
(PID.TID 0000.0001)                 3.300000000000000E+02
(PID.TID 0000.0001)     ;
(PID.TID 0000.0001) SEAICE_rhoAir     = /* density of air (kg/m3) */
(PID.TID 0000.0001)                 1.200000000000000E+00
(PID.TID 0000.0001)     ;
(PID.TID 0000.0001) usePW79thermodynamics  = /* default 0-layer TD */
(PID.TID 0000.0001)                   T
(PID.TID 0000.0001)     ;
(PID.TID 0000.0001) SEAICE_lhEvap     = /* latent heat of evaporation */
(PID.TID 0000.0001)                 2.500000000000000E+06
(PID.TID 0000.0001)     ;
(PID.TID 0000.0001) SEAICE_lhFusion   = /* latent heat of fusion */
(PID.TID 0000.0001)                 3.340000000000000E+05
(PID.TID 0000.0001)     ;
(PID.TID 0000.0001) SEAICE_mcPheePiston = /* turbulent flux "piston velocity" a la McPhee (m/s) */
(PID.TID 0000.0001)                 3.858024691358025E-05
(PID.TID 0000.0001)     ;
(PID.TID 0000.0001) SEAICE_mcPheeTaper = /* tapering of turbulent flux (0.< <1.) for AREA=1. */
(PID.TID 0000.0001)                 0.000000000000000E+00
(PID.TID 0000.0001)     ;
(PID.TID 0000.0001) SEAICE_mcPheeStepFunc = /* replace linear tapering with step funct. */
(PID.TID 0000.0001)                   F
(PID.TID 0000.0001)     ;
(PID.TID 0000.0001) SEAICE_frazilFrac = /* frazil (T<tempFrz) to seaice conversion rate (0.< <1.) */
(PID.TID 0000.0001)                 1.000000000000000E+00
(PID.TID 0000.0001)     ;
(PID.TID 0000.0001) SEAICE_tempFrz0   = /* freezing temp. of sea water (intercept) */
(PID.TID 0000.0001)                -1.960000000000000E+00
(PID.TID 0000.0001)     ;
(PID.TID 0000.0001) SEAICE_dTempFrz_dS= /* freezing temp. of sea water (slope) */
(PID.TID 0000.0001)                 0.000000000000000E+00
(PID.TID 0000.0001)     ;
(PID.TID 0000.0001) SEAICE_growMeltByConv  = /* grow,melt by vert. conv. */
(PID.TID 0000.0001)                   F
(PID.TID 0000.0001)     ;
(PID.TID 0000.0001) SEAICE_doOpenWaterGrowth = /* grow by open water */
(PID.TID 0000.0001)                   T
(PID.TID 0000.0001)     ;
(PID.TID 0000.0001) SEAICE_doOpenWaterMelt = /* melt by open water */
(PID.TID 0000.0001)                   F
(PID.TID 0000.0001)     ;
(PID.TID 0000.0001) SEAICE_areaGainFormula = /* ice cover gain formula (1,2)*/
(PID.TID 0000.0001)                       1
(PID.TID 0000.0001)     1=from growth by ATM
(PID.TID 0000.0001)     2=from predicted growth by ATM
(PID.TID 0000.0001)     ;
(PID.TID 0000.0001) SEAICE_areaLossFormula = /* ice cover loss formula (1,2)*/
(PID.TID 0000.0001)                       2
(PID.TID 0000.0001)     1=from all but only melt conributions by ATM and OCN
(PID.TID 0000.0001)     2=from net melt-grow>0 by ATM and OCN
(PID.TID 0000.0001)     3=from predicted melt by ATM
(PID.TID 0000.0001)     ;
(PID.TID 0000.0001) HO                = /* nominal thickness of new ice */
(PID.TID 0000.0001)                 5.000000000000000E-01
(PID.TID 0000.0001)     ;
(PID.TID 0000.0001) HO_south               = /* Southern Ocean HO */
(PID.TID 0000.0001)                 5.000000000000000E-01
(PID.TID 0000.0001)     ;
(PID.TID 0000.0001) SEAICE_area_max        = /* set to les than 1. to mimic open leads */
(PID.TID 0000.0001)                 9.700000000000000E-01
(PID.TID 0000.0001)     ;
(PID.TID 0000.0001) SEAICE_salt0   = /* constant sea ice salinity */
(PID.TID 0000.0001)                 4.000000000000000E+00
(PID.TID 0000.0001)     ;
(PID.TID 0000.0001) SEAICE_salinityTracer = /* test SITR varia. salinity */
(PID.TID 0000.0001)                   F
(PID.TID 0000.0001)     ;
(PID.TID 0000.0001) SEAICEuseFlooding = /* turn submerged snow into ice */
(PID.TID 0000.0001)                   T
(PID.TID 0000.0001)     ;
(PID.TID 0000.0001) 
(PID.TID 0000.0001)    Seaice air-sea fluxes configuration,   > START <
(PID.TID 0000.0001)    -----------------------------------------------
(PID.TID 0000.0001) SEAICEheatConsFix  = /* accound for ocn<->seaice advect. heat flux */
(PID.TID 0000.0001)                   T
(PID.TID 0000.0001)     ;
(PID.TID 0000.0001) SEAICE_multDim    = /* number of ice categories (1 or 7) */
(PID.TID 0000.0001)                       1
(PID.TID 0000.0001)     ;
(PID.TID 0000.0001) SEAICE_PDF        = /* sea-ice distribution (-) */
(PID.TID 0000.0001)                 1.000000000000000E+00,      /* K =  1 */
(PID.TID 0000.0001)     6 @  0.000000000000000E+00              /* K =  2:  7 */
(PID.TID 0000.0001)     ;
(PID.TID 0000.0001) IMAX_TICE         = /* iterations for ice surface temp */
(PID.TID 0000.0001)                      10
(PID.TID 0000.0001)     ;
(PID.TID 0000.0001) postSolvTempIter= /* flux calculation after surf. temp iter */
(PID.TID 0000.0001)                       2
(PID.TID 0000.0001)     ;
(PID.TID 0000.0001) SEAICE_dryIceAlb  = /* winter albedo */
(PID.TID 0000.0001)                 8.400000000000000E-01
(PID.TID 0000.0001)     ;
(PID.TID 0000.0001) SEAICE_wetIceAlb  = /* summer albedo */
(PID.TID 0000.0001)                 7.800000000000000E-01
(PID.TID 0000.0001)     ;
(PID.TID 0000.0001) SEAICE_drySnowAlb = /* dry snow albedo */
(PID.TID 0000.0001)                 9.000000000000000E-01
(PID.TID 0000.0001)     ;
(PID.TID 0000.0001) SEAICE_wetSnowAlb = /* wet snow albedo */
(PID.TID 0000.0001)                 8.000000000000000E-01
(PID.TID 0000.0001)     ;
(PID.TID 0000.0001) SEAICE_dryIceAlb_south = /* Southern Ocean dryIceAlb */
(PID.TID 0000.0001)                 7.500000000000000E-01
(PID.TID 0000.0001)     ;
(PID.TID 0000.0001) SEAICE_wetIceAlb_south = /* Southern Ocean wetIceAlb */
(PID.TID 0000.0001)                 6.600000000000000E-01
(PID.TID 0000.0001)     ;
(PID.TID 0000.0001) SEAICE_drySnowAlb_south= /* Southern Ocean drySnowAlb */
(PID.TID 0000.0001)                 8.400000000000000E-01
(PID.TID 0000.0001)     ;
(PID.TID 0000.0001) SEAICE_wetSnowAlb_south= /* Southern Ocean wetSnowAlb */
(PID.TID 0000.0001)                 7.000000000000000E-01
(PID.TID 0000.0001)     ;
(PID.TID 0000.0001) SEAICE_wetAlbTemp= /* Temp (o.C) threshold for wet-albedo */
(PID.TID 0000.0001)                -1.000000000000000E-03
(PID.TID 0000.0001)     ;
(PID.TID 0000.0001) SEAICE_snow_emiss = /* snow emissivity */
(PID.TID 0000.0001)                 9.500000000000000E-01
(PID.TID 0000.0001)     ;
(PID.TID 0000.0001) SEAICE_ice_emiss = /* seaice emissivity */
(PID.TID 0000.0001)                 9.500000000000000E-01
(PID.TID 0000.0001)     ;
(PID.TID 0000.0001) SEAICE_cpAir      = /* heat capacity of air */
(PID.TID 0000.0001)                 1.005000000000000E+03
(PID.TID 0000.0001)     ;
(PID.TID 0000.0001) SEAICE_dalton     = /* constant dalton number */
(PID.TID 0000.0001)                 1.750000000000000E-03
(PID.TID 0000.0001)     ;
(PID.TID 0000.0001) SEAICE_iceConduct = /* sea-ice conductivity */
(PID.TID 0000.0001)                 2.165600000000000E+00
(PID.TID 0000.0001)     ;
(PID.TID 0000.0001) SEAICE_snowConduct= /* snow conductivity */
(PID.TID 0000.0001)                 3.100000000000000E-01
(PID.TID 0000.0001)     ;
(PID.TID 0000.0001) SEAICE_snowThick  = /* cutoff snow thickness (for albedo) */
(PID.TID 0000.0001)                 1.500000000000000E-01
(PID.TID 0000.0001)     ;
(PID.TID 0000.0001) SEAICE_shortwave  = /* penetration shortwave radiation */
(PID.TID 0000.0001)                 3.000000000000000E-01
(PID.TID 0000.0001)     ;
(PID.TID 0000.0001) useMaykutSatVapPoly = /* use Maykut Polynomial for Sat.Vap.Pr */
(PID.TID 0000.0001)                   F
(PID.TID 0000.0001)     ;
(PID.TID 0000.0001) MIN_ATEMP         = /* minimum air temperature */
(PID.TID 0000.0001)                -4.000000000000000E+01
(PID.TID 0000.0001)     ;
(PID.TID 0000.0001) MIN_LWDOWN        = /* minimum downward longwave */
(PID.TID 0000.0001)                 6.000000000000000E+01
(PID.TID 0000.0001)     ;
(PID.TID 0000.0001) MIN_TICE          = /* minimum ice temperature */
(PID.TID 0000.0001)                -4.000000000000000E+01
(PID.TID 0000.0001)     ;
(PID.TID 0000.0001) 
(PID.TID 0000.0001)    Seaice initialization and IO config.,   > START <
(PID.TID 0000.0001)    -------------------------------------------------
(PID.TID 0000.0001) SEAICE_initialHEFF= /* initial sea-ice thickness */
(PID.TID 0000.0001)                 0.000000000000000E+00
(PID.TID 0000.0001)     ;
(PID.TID 0000.0001) AreaFile = /* Initial ice concentration File */
(PID.TID 0000.0001)               ''
(PID.TID 0000.0001)     ;
(PID.TID 0000.0001) HeffFile = /* Initial effective ice thickness File */
(PID.TID 0000.0001)               ''
(PID.TID 0000.0001)     ;
(PID.TID 0000.0001) HsnowFile = /* Initial snow thickness File */
(PID.TID 0000.0001)               ''
(PID.TID 0000.0001)     ;
(PID.TID 0000.0001) uIceFile = /* Initial U-ice velocity File */
(PID.TID 0000.0001)               ''
(PID.TID 0000.0001)     ;
(PID.TID 0000.0001) vIceFile = /* Initial V-ice velocity File */
(PID.TID 0000.0001)               ''
(PID.TID 0000.0001)     ;
(PID.TID 0000.0001) SEAICEwriteState  = /* write sea ice state to file */
(PID.TID 0000.0001)                   F
(PID.TID 0000.0001)     ;
(PID.TID 0000.0001) SEAICE_monFreq  = /* monitor frequency */
(PID.TID 0000.0001)                 3.600000000000000E+03
(PID.TID 0000.0001)     ;
(PID.TID 0000.0001) SEAICE_dumpFreq   = /* dump frequency */
(PID.TID 0000.0001)                 0.000000000000000E+00
(PID.TID 0000.0001)     ;
(PID.TID 0000.0001) SEAICE_taveFreq   = /* time-averaging frequency */
(PID.TID 0000.0001)                 0.000000000000000E+00
(PID.TID 0000.0001)     ;
(PID.TID 0000.0001) SEAICE_mon_stdio  = /* write monitor to std-outp */
(PID.TID 0000.0001)                   T
(PID.TID 0000.0001)     ;
(PID.TID 0000.0001) SEAICE_dump_mdsio = /* write snap-shot   using MDSIO */
(PID.TID 0000.0001)                   T
(PID.TID 0000.0001)     ;
(PID.TID 0000.0001) SEAICE_tave_mdsio = /* write TimeAverage using MDSIO */
(PID.TID 0000.0001)                   T
(PID.TID 0000.0001)     ;
(PID.TID 0000.0001) 
(PID.TID 0000.0001)    Seaice regularization numbers,   > START <
(PID.TID 0000.0001)    -----------------------------------------------
(PID.TID 0000.0001) SEAICE_deltaMin   = /* reduce singularities in Delta */
(PID.TID 0000.0001)                 1.000000000000000E-10
(PID.TID 0000.0001)     ;
(PID.TID 0000.0001) SEAICE_EPS        = /* small number */
(PID.TID 0000.0001)                 1.000000000000000E-10
(PID.TID 0000.0001)     ;
(PID.TID 0000.0001) SEAICE_EPS_SQ     = /* small number squared */
(PID.TID 0000.0001)                 1.000000000000000E-20
(PID.TID 0000.0001)     ;
(PID.TID 0000.0001) SEAICE_area_reg   = /* reduce derivative singularities */
(PID.TID 0000.0001)                 1.000000000000000E-05
(PID.TID 0000.0001)     ;
(PID.TID 0000.0001) SEAICE_hice_reg   = /* reduce derivative singularities */
(PID.TID 0000.0001)                 5.000000000000000E-02
(PID.TID 0000.0001)     ;
(PID.TID 0000.0001) SEAICE_area_floor = /* reduce derivative singularities */
(PID.TID 0000.0001)                 1.000000000000000E-05
(PID.TID 0000.0001)     ;
(PID.TID 0000.0001) 
(PID.TID 0000.0001) // =======================================================
(PID.TID 0000.0001) // Seaice configuration (SEAICE_PARM01) >>> END <<<
(PID.TID 0000.0001) // =======================================================
(PID.TID 0000.0001) 
(PID.TID 0000.0001) ctrl-wet 1:    nvarlength =      1203786
(PID.TID 0000.0001) ctrl-wet 2: surface wet C =          312
(PID.TID 0000.0001) ctrl-wet 3: surface wet W =          312
(PID.TID 0000.0001) ctrl-wet 4: surface wet S =          283
(PID.TID 0000.0001) ctrl-wet 4a:surface wet V =            0
(PID.TID 0000.0001) ctrl-wet 5: 3D wet points =        11544
(PID.TID 0000.0001) ctrl-wet 6: no recs for i =     1           0
(PID.TID 0000.0001) ctrl-wet 6: no recs for i =     2           0
(PID.TID 0000.0001) ctrl-wet 6: no recs for i =     3           0
(PID.TID 0000.0001) ctrl-wet 6: no recs for i =     4           0
(PID.TID 0000.0001) ctrl-wet 6: no recs for i =     5           0
(PID.TID 0000.0001) ctrl-wet 6: no recs for i =     6           0
(PID.TID 0000.0001) ctrl-wet 6: no recs for i =     7           0
(PID.TID 0000.0001) ctrl-wet 6: no recs for i =     8           0
(PID.TID 0000.0001) ctrl-wet 6: no recs for i =     9           0
(PID.TID 0000.0001) ctrl-wet 6: no recs for i =    10           0
(PID.TID 0000.0001) ctrl-wet 6: no recs for i =    11           0
(PID.TID 0000.0001) ctrl-wet 6: no recs for i =    12           0
(PID.TID 0000.0001) ctrl-wet 6: no recs for i =    13           0
(PID.TID 0000.0001) ctrl-wet 6: no recs for i =    14           0
(PID.TID 0000.0001) ctrl-wet 6: no recs for i =    15           0
(PID.TID 0000.0001) ctrl-wet 6: no recs for i =    16           0
(PID.TID 0000.0001) ctrl-wet 6: no recs for i =    17           0
(PID.TID 0000.0001) ctrl-wet 6: no recs for i =    18           0
(PID.TID 0000.0001) ctrl-wet 6: no recs for i =    19           0
(PID.TID 0000.0001) ctrl-wet 6: no recs for i =    20           0
(PID.TID 0000.0001) ctrl-wet 6: no recs for i =    21           0
(PID.TID 0000.0001) ctrl-wet 6: no recs for i =    22           0
(PID.TID 0000.0001) ctrl-wet 6: no recs for i =    23           0
(PID.TID 0000.0001) ctrl-wet 6: no recs for i =    24           0
(PID.TID 0000.0001) ctrl-wet 6: no recs for i =    25           0
(PID.TID 0000.0001) ctrl-wet 6: no recs for i =    26           0
(PID.TID 0000.0001) ctrl-wet 6: no recs for i =    27           0
(PID.TID 0000.0001) ctrl-wet 6: no recs for i =    28           0
(PID.TID 0000.0001) ctrl-wet 6: no recs for i =    29           0
(PID.TID 0000.0001) ctrl-wet 6: no recs for i =    30           0
(PID.TID 0000.0001) ctrl-wet 6: no recs for i =    31           0
(PID.TID 0000.0001) ctrl-wet 6: no recs for i =    32           0
(PID.TID 0000.0001) ctrl-wet 6: no recs for i =    33           0
(PID.TID 0000.0001) ctrl-wet 6: no recs for i =    34           0
(PID.TID 0000.0001) ctrl-wet 6: no recs for i =    35           0
(PID.TID 0000.0001) ctrl-wet 6: no recs for i =    36           0
(PID.TID 0000.0001) ctrl-wet 6: no recs for i =    37           0
(PID.TID 0000.0001) ctrl-wet 6: no recs for i =    38           0
(PID.TID 0000.0001) ctrl-wet 6: no recs for i =    39           0
(PID.TID 0000.0001) ctrl-wet 6: no recs for i =    40           0
(PID.TID 0000.0001) ctrl-wet 6: no recs for i =    41           0
(PID.TID 0000.0001) ctrl-wet 6: no recs for i =    42           0
(PID.TID 0000.0001) ctrl-wet 6: no recs for i =    43           0
(PID.TID 0000.0001) ctrl-wet 6: no recs for i =    44           0
(PID.TID 0000.0001) ctrl-wet 6: no recs for i =    45           0
(PID.TID 0000.0001) ctrl-wet 6: no recs for i =    46           0
(PID.TID 0000.0001) ctrl-wet 6: no recs for i =    47           0
(PID.TID 0000.0001) ctrl-wet 6: no recs for i =    48           0
(PID.TID 0000.0001) ctrl-wet 6: no recs for i =    49           0
(PID.TID 0000.0001) ctrl-wet 6: no recs for i =    50           0
(PID.TID 0000.0001) ctrl-wet 6: no recs for i =    51           0
(PID.TID 0000.0001) ctrl-wet 6: no recs for i =    52           0
(PID.TID 0000.0001) ctrl-wet 6: no recs for i =    53           0
(PID.TID 0000.0001) ctrl-wet 6: no recs for i =    54           0
(PID.TID 0000.0001) ctrl-wet 6: no recs for i =    55           0
(PID.TID 0000.0001) ctrl-wet 6: no recs for i =    56           0
(PID.TID 0000.0001) ctrl-wet 6: no recs for i =    57           0
(PID.TID 0000.0001) ctrl-wet 6: no recs for i =    58           0
(PID.TID 0000.0001) ctrl-wet 6: no recs for i =    59           0
(PID.TID 0000.0001) ctrl-wet 6: no recs for i =    60           0
(PID.TID 0000.0001) ctrl-wet 6: no recs for i =    61           0
(PID.TID 0000.0001) ctrl-wet 6: no recs for i =    62           0
(PID.TID 0000.0001) ctrl-wet 6: no recs for i =    63           0
(PID.TID 0000.0001) ctrl-wet 6: no recs for i =    64           0
(PID.TID 0000.0001) ctrl-wet 6: no recs for i =    65           0
(PID.TID 0000.0001) ctrl-wet 6: no recs for i =    66           0
(PID.TID 0000.0001) ctrl-wet 6: no recs for i =    67           0
(PID.TID 0000.0001) ctrl-wet 6: no recs for i =    68           0
(PID.TID 0000.0001) ctrl-wet 6: no recs for i =    69           0
(PID.TID 0000.0001) ctrl-wet 6: no recs for i =    70           0
(PID.TID 0000.0001) ctrl-wet 6: no recs for i =    71           0
(PID.TID 0000.0001) ctrl-wet 6: no recs for i =    72           0
(PID.TID 0000.0001) ctrl-wet 6: no recs for i =    73           0
(PID.TID 0000.0001) ctrl-wet 6: no recs for i =    74           0
(PID.TID 0000.0001) ctrl-wet 6: no recs for i =    75           0
(PID.TID 0000.0001) ctrl-wet 6: no recs for i =    76           0
(PID.TID 0000.0001) ctrl-wet 6: no recs for i =    77           0
(PID.TID 0000.0001) ctrl-wet 6: no recs for i =    78           0
(PID.TID 0000.0001) ctrl-wet 6: no recs for i =    79           0
(PID.TID 0000.0001) ctrl-wet 6: no recs for i =    80           0
(PID.TID 0000.0001) ctrl-wet 6: no recs for i =    81           0
(PID.TID 0000.0001) ctrl-wet 6: no recs for i =    82           0
(PID.TID 0000.0001) ctrl-wet 6: no recs for i =    83           0
(PID.TID 0000.0001) ctrl-wet 6: no recs for i =    84           0
(PID.TID 0000.0001) ctrl-wet 6: no recs for i =    85           0
(PID.TID 0000.0001) ctrl-wet 6: no recs for i =    86           0
(PID.TID 0000.0001) ctrl-wet 6: no recs for i =    87           0
(PID.TID 0000.0001) ctrl-wet 6: no recs for i =    88           0
(PID.TID 0000.0001) ctrl-wet 6: no recs for i =    89           0
(PID.TID 0000.0001) ctrl-wet 6: no recs for i =    90           0
(PID.TID 0000.0001) ctrl-wet 6: no recs for i =    91           0
(PID.TID 0000.0001) ctrl-wet 6: no recs for i =    92           0
(PID.TID 0000.0001) ctrl-wet 6: no recs for i =    93           0
(PID.TID 0000.0001) ctrl-wet 6: no recs for i =    94           0
(PID.TID 0000.0001) ctrl-wet 6: no recs for i =    95           0
(PID.TID 0000.0001) ctrl-wet 6: no recs for i =    96           0
(PID.TID 0000.0001) ctrl-wet 6: no recs for i =    97           0
(PID.TID 0000.0001) ctrl-wet 6: no recs for i =    98           0
(PID.TID 0000.0001) ctrl-wet 6: no recs for i =    99           0
(PID.TID 0000.0001) ctrl-wet 6: no recs for i =   100           0
(PID.TID 0000.0001) ctrl-wet 6: no recs for i =   101           0
(PID.TID 0000.0001) ctrl-wet 6: no recs for i =   102           0
(PID.TID 0000.0001) ctrl-wet 6: no recs for i =   103           0
(PID.TID 0000.0001) ctrl-wet 6: no recs for i =   104           0
(PID.TID 0000.0001) ctrl-wet 6: no recs for i =   105           0
(PID.TID 0000.0001) ctrl-wet 6: no recs for i =   106           0
(PID.TID 0000.0001) ctrl-wet 6: no recs for i =   107           0
(PID.TID 0000.0001) ctrl-wet 6: no recs for i =   108           0
(PID.TID 0000.0001) ctrl-wet 6: no recs for i =   109           0
(PID.TID 0000.0001) ctrl-wet 6: no recs for i =   110           0
(PID.TID 0000.0001) ctrl-wet 6: no recs for i =   111           0
(PID.TID 0000.0001) ctrl-wet 6: no recs for i =   112           0
(PID.TID 0000.0001) ctrl-wet 6: no recs for i =   113           0
(PID.TID 0000.0001) ctrl-wet 6: no recs for i =   114           0
(PID.TID 0000.0001) ctrl-wet 6: no recs for i =   115           0
(PID.TID 0000.0001) ctrl-wet 6: no recs for i =   116           0
(PID.TID 0000.0001) ctrl-wet 6: no recs for i =   117           0
(PID.TID 0000.0001) ctrl-wet 6: no recs for i =   118           0
(PID.TID 0000.0001) ctrl-wet 6: no recs for i =   119           0
(PID.TID 0000.0001) ctrl-wet 6: no recs for i =   120           0
(PID.TID 0000.0001) ctrl-wet 6: no recs for i =   121           0
(PID.TID 0000.0001) ctrl-wet 6: no recs for i =   122           0
(PID.TID 0000.0001) ctrl-wet 6: no recs for i =   123           0
(PID.TID 0000.0001) ctrl-wet 6: no recs for i =   124           0
(PID.TID 0000.0001) ctrl-wet 6: no recs for i =   125           0
(PID.TID 0000.0001) ctrl-wet 6: no recs for i =   126           0
(PID.TID 0000.0001) ctrl-wet 6: no recs for i =   127           0
(PID.TID 0000.0001) ctrl-wet 6: no recs for i =   128           0
(PID.TID 0000.0001) ctrl-wet 6: no recs for i =   129           0
(PID.TID 0000.0001) ctrl-wet 6: no recs for i =   130           0
(PID.TID 0000.0001) ctrl-wet 6: no recs for i =   131           0
(PID.TID 0000.0001) ctrl-wet 6: no recs for i =   132           0
(PID.TID 0000.0001) ctrl-wet 6: no recs for i =   133           0
(PID.TID 0000.0001) ctrl-wet 6: no recs for i =   134           0
(PID.TID 0000.0001) ctrl-wet 6: no recs for i =   135           0
(PID.TID 0000.0001) ctrl-wet 6: no recs for i =   136           0
(PID.TID 0000.0001) ctrl-wet 6: no recs for i =   137           0
(PID.TID 0000.0001) ctrl-wet 6: no recs for i =   138           0
(PID.TID 0000.0001) ctrl-wet 6: no recs for i =   139           0
(PID.TID 0000.0001) ctrl-wet 6: no recs for i =   140           0
(PID.TID 0000.0001) ctrl-wet 6: no recs for i =   141           0
(PID.TID 0000.0001) ctrl-wet 6: no recs for i =   142           0
(PID.TID 0000.0001) ctrl-wet 6: no recs for i =   143           0
(PID.TID 0000.0001) ctrl-wet 6: no recs for i =   144           0
(PID.TID 0000.0001) ctrl-wet 6: no recs for i =   145           0
(PID.TID 0000.0001) ctrl-wet 6: no recs for i =   146           0
(PID.TID 0000.0001) ctrl-wet 6: no recs for i =   147           0
(PID.TID 0000.0001) ctrl-wet 6: no recs for i =   148           0
(PID.TID 0000.0001) ctrl-wet 6: no recs for i =   149           0
(PID.TID 0000.0001) ctrl-wet 6: no recs for i =   150           0
(PID.TID 0000.0001) ctrl-wet 6: no recs for i =   151           0
(PID.TID 0000.0001) ctrl-wet 6: no recs for i =   152           0
(PID.TID 0000.0001) ctrl-wet 6: no recs for i =   153           0
(PID.TID 0000.0001) ctrl-wet 6: no recs for i =   154           0
(PID.TID 0000.0001) ctrl-wet 6: no recs for i =   155           0
(PID.TID 0000.0001) ctrl-wet 6: no recs for i =   156           0
(PID.TID 0000.0001) ctrl-wet 6: no recs for i =   157           0
(PID.TID 0000.0001) ctrl-wet 6: no recs for i =   158           0
(PID.TID 0000.0001) ctrl-wet 6: no recs for i =   159           0
(PID.TID 0000.0001) ctrl-wet 6: no recs for i =   160           0
(PID.TID 0000.0001) ctrl-wet 6: no recs for i =   161           0
(PID.TID 0000.0001) ctrl-wet 6: no recs for i =   162           0
(PID.TID 0000.0001) ctrl-wet 6: no recs for i =   163           0
(PID.TID 0000.0001) ctrl-wet 6: no recs for i =   164           0
(PID.TID 0000.0001) ctrl-wet 6: no recs for i =   165           0
(PID.TID 0000.0001) ctrl-wet 6: no recs for i =   166           0
(PID.TID 0000.0001) ctrl-wet 6: no recs for i =   167           0
(PID.TID 0000.0001) ctrl-wet 6: no recs for i =   168           0
(PID.TID 0000.0001) ctrl-wet 6: no recs for i =   169           0
(PID.TID 0000.0001) ctrl-wet 6: no recs for i =   170           0
(PID.TID 0000.0001) ctrl-wet 6: no recs for i =   171           0
(PID.TID 0000.0001) ctrl-wet 6: no recs for i =   172           0
(PID.TID 0000.0001) ctrl-wet 6: no recs for i =   173           0
(PID.TID 0000.0001) ctrl-wet 6: no recs for i =   174           0
(PID.TID 0000.0001) ctrl-wet 6: no recs for i =   175           0
(PID.TID 0000.0001) ctrl-wet 6: no recs for i =   176           0
(PID.TID 0000.0001) ctrl-wet 6: no recs for i =   177           0
(PID.TID 0000.0001) ctrl-wet 6: no recs for i =   178           0
(PID.TID 0000.0001) ctrl-wet 6: no recs for i =   179           0
(PID.TID 0000.0001) ctrl-wet 6: no recs for i =   180           0
(PID.TID 0000.0001) ctrl-wet 6: no recs for i =   181           0
(PID.TID 0000.0001) ctrl-wet 6: no recs for i =   182           0
(PID.TID 0000.0001) ctrl-wet 6: no recs for i =   183           0
(PID.TID 0000.0001) ctrl-wet 6: no recs for i =   184           0
(PID.TID 0000.0001) ctrl-wet 6: no recs for i =   185           0
(PID.TID 0000.0001) ctrl-wet 6: no recs for i =   186           0
(PID.TID 0000.0001) ctrl-wet 6: no recs for i =   187           0
(PID.TID 0000.0001) ctrl-wet 6: no recs for i =   188           0
(PID.TID 0000.0001) ctrl-wet 6: no recs for i =   189           0
(PID.TID 0000.0001) ctrl-wet 6: no recs for i =   190           0
(PID.TID 0000.0001) ctrl-wet 6: no recs for i =   191           0
(PID.TID 0000.0001) ctrl-wet 6: no recs for i =   192           0
(PID.TID 0000.0001) ctrl-wet 6: no recs for i =   193           0
(PID.TID 0000.0001) ctrl-wet 6: no recs for i =   194           0
(PID.TID 0000.0001) ctrl-wet 6: no recs for i =   195           0
(PID.TID 0000.0001) ctrl-wet 6: no recs for i =   196           0
(PID.TID 0000.0001) ctrl-wet 6: no recs for i =   197           0
(PID.TID 0000.0001) ctrl-wet 6: no recs for i =   198           0
(PID.TID 0000.0001) ctrl-wet 6: no recs for i =   199           0
(PID.TID 0000.0001) ctrl-wet 6: no recs for i =   200           0
(PID.TID 0000.0001) ctrl-wet 6: no recs for i =   201           1
(PID.TID 0000.0001) ctrl-wet 6: no recs for i =   202           1
(PID.TID 0000.0001) ctrl-wet 6: no recs for i =   203           1
(PID.TID 0000.0001) ctrl-wet 6: no recs for i =   204           0
(PID.TID 0000.0001) ctrl-wet 6: no recs for i =   205           0
(PID.TID 0000.0001) ctrl-wet 6: no recs for i =   206           0
(PID.TID 0000.0001) ctrl-wet 6: no recs for i =   207           0
(PID.TID 0000.0001) ctrl-wet 6: no recs for i =   208           0
(PID.TID 0000.0001) ctrl-wet 6: no recs for i =   209           0
(PID.TID 0000.0001) ctrl-wet 6: no recs for i =   210           0
(PID.TID 0000.0001) ctrl-wet 6: no recs for i =   211           0
(PID.TID 0000.0001) ctrl-wet 6: no recs for i =   212           0
(PID.TID 0000.0001) ctrl-wet 6: no recs for i =   213           0
(PID.TID 0000.0001) ctrl-wet 6: no recs for i =   214           0
(PID.TID 0000.0001) ctrl-wet 6: no recs for i =   215           0
(PID.TID 0000.0001) ctrl-wet 6: no recs for i =   216           0
(PID.TID 0000.0001) ctrl-wet 6: no recs for i =   217           0
(PID.TID 0000.0001) ctrl-wet 6: no recs for i =   218           0
(PID.TID 0000.0001) ctrl-wet 6: no recs for i =   219           0
(PID.TID 0000.0001) ctrl-wet 6: no recs for i =   220           0
(PID.TID 0000.0001) ctrl-wet 6: no recs for i =   221           0
(PID.TID 0000.0001) ctrl-wet 6: no recs for i =   222           0
(PID.TID 0000.0001) ctrl-wet 6: no recs for i =   223           0
(PID.TID 0000.0001) ctrl-wet 6: no recs for i =   224           0
(PID.TID 0000.0001) ctrl-wet 6: no recs for i =   225           0
(PID.TID 0000.0001) ctrl-wet 6: no recs for i =   226           0
(PID.TID 0000.0001) ctrl-wet 6: no recs for i =   227           0
(PID.TID 0000.0001) ctrl-wet 6: no recs for i =   228           0
(PID.TID 0000.0001) ctrl-wet 6: no recs for i =   229           0
(PID.TID 0000.0001) ctrl-wet 6: no recs for i =   230           0
(PID.TID 0000.0001) ctrl-wet 6: no recs for i =   231           0
(PID.TID 0000.0001) ctrl-wet 6: no recs for i =   232           0
(PID.TID 0000.0001) ctrl-wet 6: no recs for i =   233           0
(PID.TID 0000.0001) ctrl-wet 6: no recs for i =   234           0
(PID.TID 0000.0001) ctrl-wet 6: no recs for i =   235           0
(PID.TID 0000.0001) ctrl-wet 6: no recs for i =   236           0
(PID.TID 0000.0001) ctrl-wet 6: no recs for i =   237           0
(PID.TID 0000.0001) ctrl-wet 6: no recs for i =   238           0
(PID.TID 0000.0001) ctrl-wet 6: no recs for i =   239           0
(PID.TID 0000.0001) ctrl-wet 6: no recs for i =   240           0
(PID.TID 0000.0001) ctrl-wet 6: no recs for i =   241           0
(PID.TID 0000.0001) ctrl-wet 6: no recs for i =   242           0
(PID.TID 0000.0001) ctrl-wet 6: no recs for i =   243           0
(PID.TID 0000.0001) ctrl-wet 6: no recs for i =   244           0
(PID.TID 0000.0001) ctrl-wet 6: no recs for i =   245           0
(PID.TID 0000.0001) ctrl-wet 6: no recs for i =   246           0
(PID.TID 0000.0001) ctrl-wet 6: no recs for i =   247           0
(PID.TID 0000.0001) ctrl-wet 6: no recs for i =   248           0
(PID.TID 0000.0001) ctrl-wet 6: no recs for i =   249           0
(PID.TID 0000.0001) ctrl-wet 6: no recs for i =   250           0
(PID.TID 0000.0001) ctrl-wet 6: no recs for i =   251           0
(PID.TID 0000.0001) ctrl-wet 6: no recs for i =   252           0
(PID.TID 0000.0001) ctrl-wet 6: no recs for i =   253           0
(PID.TID 0000.0001) ctrl-wet 6: no recs for i =   254           0
(PID.TID 0000.0001) ctrl-wet 6: no recs for i =   255           0
(PID.TID 0000.0001) ctrl-wet 6: no recs for i =   256           0
(PID.TID 0000.0001) ctrl-wet 6: no recs for i =   257           0
(PID.TID 0000.0001) ctrl-wet 6: no recs for i =   258           0
(PID.TID 0000.0001) ctrl-wet 6: no recs for i =   259           0
(PID.TID 0000.0001) ctrl-wet 6: no recs for i =   260           0
(PID.TID 0000.0001) ctrl-wet 6: no recs for i =   261           0
(PID.TID 0000.0001) ctrl-wet 6: no recs for i =   262           0
(PID.TID 0000.0001) ctrl-wet 6: no recs for i =   263           0
(PID.TID 0000.0001) ctrl-wet 6: no recs for i =   264           0
(PID.TID 0000.0001) ctrl-wet 6: no recs for i =   265           0
(PID.TID 0000.0001) ctrl-wet 6: no recs for i =   266           0
(PID.TID 0000.0001) ctrl-wet 6: no recs for i =   267           0
(PID.TID 0000.0001) ctrl-wet 6: no recs for i =   268           0
(PID.TID 0000.0001) ctrl-wet 6: no recs for i =   269           0
(PID.TID 0000.0001) ctrl-wet 6: no recs for i =   270           0
(PID.TID 0000.0001) ctrl-wet 6: no recs for i =   271           0
(PID.TID 0000.0001) ctrl-wet 6: no recs for i =   272           0
(PID.TID 0000.0001) ctrl-wet 6: no recs for i =   273           0
(PID.TID 0000.0001) ctrl-wet 6: no recs for i =   274           0
(PID.TID 0000.0001) ctrl-wet 6: no recs for i =   275           0
(PID.TID 0000.0001) ctrl-wet 6: no recs for i =   276           0
(PID.TID 0000.0001) ctrl-wet 6: no recs for i =   277           0
(PID.TID 0000.0001) ctrl-wet 6: no recs for i =   278           0
(PID.TID 0000.0001) ctrl-wet 6: no recs for i =   279           0
(PID.TID 0000.0001) ctrl-wet 6: no recs for i =   280           0
(PID.TID 0000.0001) ctrl-wet 6: no recs for i =   281           0
(PID.TID 0000.0001) ctrl-wet 6: no recs for i =   282           0
(PID.TID 0000.0001) ctrl-wet 6: no recs for i =   283           0
(PID.TID 0000.0001) ctrl-wet 6: no recs for i =   284           0
(PID.TID 0000.0001) ctrl-wet 6: no recs for i =   285           0
(PID.TID 0000.0001) ctrl-wet 6: no recs for i =   286           0
(PID.TID 0000.0001) ctrl-wet 6: no recs for i =   287           0
(PID.TID 0000.0001) ctrl-wet 6: no recs for i =   288           0
(PID.TID 0000.0001) ctrl-wet 6: no recs for i =   289           0
(PID.TID 0000.0001) ctrl-wet 6: no recs for i =   290           0
(PID.TID 0000.0001) ctrl-wet 6: no recs for i =   291           0
(PID.TID 0000.0001) ctrl-wet 6: no recs for i =   292           0
(PID.TID 0000.0001) ctrl-wet 6: no recs for i =   293           0
(PID.TID 0000.0001) ctrl-wet 6: no recs for i =   294           0
(PID.TID 0000.0001) ctrl-wet 6: no recs for i =   295           0
(PID.TID 0000.0001) ctrl-wet 6: no recs for i =   296           0
(PID.TID 0000.0001) ctrl-wet 6: no recs for i =   297           0
(PID.TID 0000.0001) ctrl-wet 6: no recs for i =   298           0
(PID.TID 0000.0001) ctrl-wet 6: no recs for i =   299           0
(PID.TID 0000.0001) ctrl-wet 6: no recs for i =   300           0
(PID.TID 0000.0001) ctrl-wet 6: no recs for i =   301           0
(PID.TID 0000.0001) ctrl-wet 6: no recs for i =   302           0
(PID.TID 0000.0001) ctrl-wet 6: no recs for i =   303           0
(PID.TID 0000.0001) ctrl-wet 6: no recs for i =   304           0
(PID.TID 0000.0001) ctrl-wet 6: no recs for i =   305           0
(PID.TID 0000.0001) ctrl-wet 6: no recs for i =   306           0
(PID.TID 0000.0001) ctrl-wet 6: no recs for i =   307           0
(PID.TID 0000.0001) ctrl-wet 6: no recs for i =   308           0
(PID.TID 0000.0001) ctrl-wet 6: no recs for i =   309           0
(PID.TID 0000.0001) ctrl-wet 6: no recs for i =   310           0
(PID.TID 0000.0001) ctrl-wet 6: no recs for i =   311           0
(PID.TID 0000.0001) ctrl-wet 6: no recs for i =   312           0
(PID.TID 0000.0001) ctrl-wet 6: no recs for i =   313           0
(PID.TID 0000.0001) ctrl-wet 6: no recs for i =   314           0
(PID.TID 0000.0001) ctrl-wet 6: no recs for i =   315           0
(PID.TID 0000.0001) ctrl-wet 6: no recs for i =   316           0
(PID.TID 0000.0001) ctrl-wet 6: no recs for i =   317           0
(PID.TID 0000.0001) ctrl-wet 6: no recs for i =   318           0
(PID.TID 0000.0001) ctrl-wet 6: no recs for i =   319           0
(PID.TID 0000.0001) ctrl-wet 6: no recs for i =   320           0
(PID.TID 0000.0001) ctrl-wet 6: no recs for i =   321           0
(PID.TID 0000.0001) ctrl-wet 6: no recs for i =   322           0
(PID.TID 0000.0001) ctrl-wet 6: no recs for i =   323           0
(PID.TID 0000.0001) ctrl-wet 6: no recs for i =   324           0
(PID.TID 0000.0001) ctrl-wet 6: no recs for i =   325           0
(PID.TID 0000.0001) ctrl-wet 6: no recs for i =   326           0
(PID.TID 0000.0001) ctrl-wet 6: no recs for i =   327           0
(PID.TID 0000.0001) ctrl-wet 6: no recs for i =   328           0
(PID.TID 0000.0001) ctrl-wet 6: no recs for i =   329           0
(PID.TID 0000.0001) ctrl-wet 6: no recs for i =   330           0
(PID.TID 0000.0001) ctrl-wet 6: no recs for i =   331           0
(PID.TID 0000.0001) ctrl-wet 6: no recs for i =   332           0
(PID.TID 0000.0001) ctrl-wet 6: no recs for i =   333           0
(PID.TID 0000.0001) ctrl-wet 6: no recs for i =   334           0
(PID.TID 0000.0001) ctrl-wet 6: no recs for i =   335           0
(PID.TID 0000.0001) ctrl-wet 6: no recs for i =   336           0
(PID.TID 0000.0001) ctrl-wet 6: no recs for i =   337           0
(PID.TID 0000.0001) ctrl-wet 6: no recs for i =   338           0
(PID.TID 0000.0001) ctrl-wet 6: no recs for i =   339           0
(PID.TID 0000.0001) ctrl-wet 6: no recs for i =   340           0
(PID.TID 0000.0001) ctrl-wet 6: no recs for i =   341           0
(PID.TID 0000.0001) ctrl-wet 6: no recs for i =   342           0
(PID.TID 0000.0001) ctrl-wet 6: no recs for i =   343           0
(PID.TID 0000.0001) ctrl-wet 6: no recs for i =   344           0
(PID.TID 0000.0001) ctrl-wet 6: no recs for i =   345           0
(PID.TID 0000.0001) ctrl-wet 6: no recs for i =   346           0
(PID.TID 0000.0001) ctrl-wet 6: no recs for i =   347           0
(PID.TID 0000.0001) ctrl-wet 6: no recs for i =   348           0
(PID.TID 0000.0001) ctrl-wet 6: no recs for i =   349           0
(PID.TID 0000.0001) ctrl-wet 6: no recs for i =   350           0
(PID.TID 0000.0001) ctrl-wet 6: no recs for i =   351           0
(PID.TID 0000.0001) ctrl-wet 6: no recs for i =   352           0
(PID.TID 0000.0001) ctrl-wet 6: no recs for i =   353           0
(PID.TID 0000.0001) ctrl-wet 6: no recs for i =   354           0
(PID.TID 0000.0001) ctrl-wet 6: no recs for i =   355           0
(PID.TID 0000.0001) ctrl-wet 6: no recs for i =   356           0
(PID.TID 0000.0001) ctrl-wet 6: no recs for i =   357           0
(PID.TID 0000.0001) ctrl-wet 6: no recs for i =   358           0
(PID.TID 0000.0001) ctrl-wet 6: no recs for i =   359           0
(PID.TID 0000.0001) ctrl-wet 6: no recs for i =   360           0
(PID.TID 0000.0001) ctrl-wet 6: no recs for i =   361           0
(PID.TID 0000.0001) ctrl-wet 6: no recs for i =   362           0
(PID.TID 0000.0001) ctrl-wet 6: no recs for i =   363           0
(PID.TID 0000.0001) ctrl-wet 6: no recs for i =   364           0
(PID.TID 0000.0001) ctrl-wet 6: no recs for i =   365           0
(PID.TID 0000.0001) ctrl-wet 6: no recs for i =   366           0
(PID.TID 0000.0001) ctrl-wet 6: no recs for i =   367           0
(PID.TID 0000.0001) ctrl-wet 6: no recs for i =   368           0
(PID.TID 0000.0001) ctrl-wet 6: no recs for i =   369           0
(PID.TID 0000.0001) ctrl-wet 6: no recs for i =   370           0
(PID.TID 0000.0001) ctrl-wet 6: no recs for i =   371           0
(PID.TID 0000.0001) ctrl-wet 6: no recs for i =   372           0
(PID.TID 0000.0001) ctrl-wet 6: no recs for i =   373           0
(PID.TID 0000.0001) ctrl-wet 6: no recs for i =   374           0
(PID.TID 0000.0001) ctrl-wet 6: no recs for i =   375           0
(PID.TID 0000.0001) ctrl-wet 6: no recs for i =   376           0
(PID.TID 0000.0001) ctrl-wet 6: no recs for i =   377           0
(PID.TID 0000.0001) ctrl-wet 6: no recs for i =   378           0
(PID.TID 0000.0001) ctrl-wet 6: no recs for i =   379           0
(PID.TID 0000.0001) ctrl-wet 6: no recs for i =   380           0
(PID.TID 0000.0001) ctrl-wet 6: no recs for i =   381           0
(PID.TID 0000.0001) ctrl-wet 6: no recs for i =   382           0
(PID.TID 0000.0001) ctrl-wet 6: no recs for i =   383           0
(PID.TID 0000.0001) ctrl-wet 6: no recs for i =   384           0
(PID.TID 0000.0001) ctrl-wet 6: no recs for i =   385           0
(PID.TID 0000.0001) ctrl-wet 6: no recs for i =   386           0
(PID.TID 0000.0001) ctrl-wet 6: no recs for i =   387           0
(PID.TID 0000.0001) ctrl-wet 6: no recs for i =   388           0
(PID.TID 0000.0001) ctrl-wet 6: no recs for i =   389           0
(PID.TID 0000.0001) ctrl-wet 6: no recs for i =   390           0
(PID.TID 0000.0001) ctrl-wet 6: no recs for i =   391           0
(PID.TID 0000.0001) ctrl-wet 6: no recs for i =   392           0
(PID.TID 0000.0001) ctrl-wet 6: no recs for i =   393           0
(PID.TID 0000.0001) ctrl-wet 6: no recs for i =   394           0
(PID.TID 0000.0001) ctrl-wet 6: no recs for i =   395           0
(PID.TID 0000.0001) ctrl-wet 6: no recs for i =   396           0
(PID.TID 0000.0001) ctrl-wet 6: no recs for i =   397           0
(PID.TID 0000.0001) ctrl-wet 6: no recs for i =   398           0
(PID.TID 0000.0001) ctrl-wet 6: no recs for i =   399           0
(PID.TID 0000.0001) ctrl-wet 6: no recs for i =   400           0
(PID.TID 0000.0001) ctrl-wet 7: flux         23088
(PID.TID 0000.0001) ctrl-wet 8: atmos        23088
(PID.TID 0000.0001) ctrl-wet -------------------------------------------------
(PID.TID 0000.0001) ctrl-wet 13: global nvarlength for Nr =   50     7220976
(PID.TID 0000.0001) ctrl-wet -------------------------------------------------
(PID.TID 0000.0001) ctrl-wet 14: global nWet C/S/W/V k=    1       60646       59295       59493           0
(PID.TID 0000.0001) ctrl-wet 14: global nWet C/S/W/V k=    2       60646       59295       59493           0
(PID.TID 0000.0001) ctrl-wet 14: global nWet C/S/W/V k=    3       59874       58517       58725           0
(PID.TID 0000.0001) ctrl-wet 14: global nWet C/S/W/V k=    4       59387       58040       58258           0
(PID.TID 0000.0001) ctrl-wet 14: global nWet C/S/W/V k=    5       58882       57536       57754           0
(PID.TID 0000.0001) ctrl-wet 14: global nWet C/S/W/V k=    6       58399       57057       57276           0
(PID.TID 0000.0001) ctrl-wet 14: global nWet C/S/W/V k=    7       58052       56735       56936           0
(PID.TID 0000.0001) ctrl-wet 14: global nWet C/S/W/V k=    8       57781       56461       56669           0
(PID.TID 0000.0001) ctrl-wet 14: global nWet C/S/W/V k=    9       57530       56212       56416           0
(PID.TID 0000.0001) ctrl-wet 14: global nWet C/S/W/V k=   10       57283       55964       56154           0
(PID.TID 0000.0001) ctrl-wet 14: global nWet C/S/W/V k=   11       57022       55702       55883           0
(PID.TID 0000.0001) ctrl-wet 14: global nWet C/S/W/V k=   12       56818       55497       55681           0
(PID.TID 0000.0001) ctrl-wet 14: global nWet C/S/W/V k=   13       56634       55322       55509           0
(PID.TID 0000.0001) ctrl-wet 14: global nWet C/S/W/V k=   14       56430       55125       55312           0
(PID.TID 0000.0001) ctrl-wet 14: global nWet C/S/W/V k=   15       56238       54935       55117           0
(PID.TID 0000.0001) ctrl-wet 14: global nWet C/S/W/V k=   16       55975       54689       54858           0
(PID.TID 0000.0001) ctrl-wet 14: global nWet C/S/W/V k=   17       55703       54421       54600           0
(PID.TID 0000.0001) ctrl-wet 14: global nWet C/S/W/V k=   18       55358       54075       54251           0
(PID.TID 0000.0001) ctrl-wet 14: global nWet C/S/W/V k=   19       54964       53666       53853           0
(PID.TID 0000.0001) ctrl-wet 14: global nWet C/S/W/V k=   20       54471       53205       53372           0
(PID.TID 0000.0001) ctrl-wet 14: global nWet C/S/W/V k=   21       53952       52716       52877           0
(PID.TID 0000.0001) ctrl-wet 14: global nWet C/S/W/V k=   22       53489       52249       52409           0
(PID.TID 0000.0001) ctrl-wet 14: global nWet C/S/W/V k=   23       52892       51633       51797           0
(PID.TID 0000.0001) ctrl-wet 14: global nWet C/S/W/V k=   24       52223       50961       51129           0
(PID.TID 0000.0001) ctrl-wet 14: global nWet C/S/W/V k=   25       51696       50480       50635           0
(PID.TID 0000.0001) ctrl-wet 14: global nWet C/S/W/V k=   26       51259       50075       50241           0
(PID.TID 0000.0001) ctrl-wet 14: global nWet C/S/W/V k=   27       50929       49774       49935           0
(PID.TID 0000.0001) ctrl-wet 14: global nWet C/S/W/V k=   28       50664       49532       49678           0
(PID.TID 0000.0001) ctrl-wet 14: global nWet C/S/W/V k=   29       50438       49306       49450           0
(PID.TID 0000.0001) ctrl-wet 14: global nWet C/S/W/V k=   30       50187       49035       49179           0
(PID.TID 0000.0001) ctrl-wet 14: global nWet C/S/W/V k=   31       49964       48805       48937           0
(PID.TID 0000.0001) ctrl-wet 14: global nWet C/S/W/V k=   32       49700       48530       48662           0
(PID.TID 0000.0001) ctrl-wet 14: global nWet C/S/W/V k=   33       49431       48260       48383           0
(PID.TID 0000.0001) ctrl-wet 14: global nWet C/S/W/V k=   34       49176       47993       48108           0
(PID.TID 0000.0001) ctrl-wet 14: global nWet C/S/W/V k=   35       48854       47652       47764           0
(PID.TID 0000.0001) ctrl-wet 14: global nWet C/S/W/V k=   36       48501       47264       47375           0
(PID.TID 0000.0001) ctrl-wet 14: global nWet C/S/W/V k=   37       48098       46846       46951           0
(PID.TID 0000.0001) ctrl-wet 14: global nWet C/S/W/V k=   38       47523       46253       46362           0
(PID.TID 0000.0001) ctrl-wet 14: global nWet C/S/W/V k=   39       46849       45558       45657           0
(PID.TID 0000.0001) ctrl-wet 14: global nWet C/S/W/V k=   40       45984       44670       44751           0
(PID.TID 0000.0001) ctrl-wet 14: global nWet C/S/W/V k=   41       44793       43419       43459           0
(PID.TID 0000.0001) ctrl-wet 14: global nWet C/S/W/V k=   42       42984       41497       41533           0
(PID.TID 0000.0001) ctrl-wet 14: global nWet C/S/W/V k=   43       40302       38691       38718           0
(PID.TID 0000.0001) ctrl-wet 14: global nWet C/S/W/V k=   44       36689       35007       35032           0
(PID.TID 0000.0001) ctrl-wet 14: global nWet C/S/W/V k=   45       31681       30069       29999           0
(PID.TID 0000.0001) ctrl-wet 14: global nWet C/S/W/V k=   46       25595       24028       24031           0
(PID.TID 0000.0001) ctrl-wet 14: global nWet C/S/W/V k=   47       18224       16890       16872           0
(PID.TID 0000.0001) ctrl-wet 14: global nWet C/S/W/V k=   48       11407       10397       10351           0
(PID.TID 0000.0001) ctrl-wet 14: global nWet C/S/W/V k=   49        4597        3913        3912           0
(PID.TID 0000.0001) ctrl-wet 14: global nWet C/S/W/V k=   50         818         624         622           0
(PID.TID 0000.0001) ctrl-wet -------------------------------------------------
(PID.TID 0000.0001) ctrl-wet -------------------------------------------------
(PID.TID 0000.0001) ctrl-wet -------------------------------------------------
(PID.TID 0000.0001) ctrl_init_wet: no. of control variables:            3
(PID.TID 0000.0001) ctrl_init_wet: control vector length:         7220976
(PID.TID 0000.0001) 
(PID.TID 0000.0001) // =======================================================
(PID.TID 0000.0001) // control vector configuration  >>> START <<<
(PID.TID 0000.0001) // =======================================================
(PID.TID 0000.0001) 
(PID.TID 0000.0001)  Total number of ocean points per tile:
(PID.TID 0000.0001)  --------------------------------------
(PID.TID 0000.0001)  snx*sny*nr =    45000
(PID.TID 0000.0001) 
(PID.TID 0000.0001)  Number of ocean points per tile:
(PID.TID 0000.0001)  --------------------------------
(PID.TID 0000.0001)  bi,bj,#(c/s/w): 0001 0001 011544 010207 011460
(PID.TID 0000.0001)  bi,bj,#(c/s/w): 0002 0001 041559 041310 041343
(PID.TID 0000.0001)  bi,bj,#(c/s/w): 0003 0001 039915 038420 039722
(PID.TID 0000.0001)  bi,bj,#(c/s/w): 0004 0001 035457 033982 035227
(PID.TID 0000.0001)  bi,bj,#(c/s/w): 0005 0001 040378 040035 040082
(PID.TID 0000.0001)  bi,bj,#(c/s/w): 0006 0001 040418 040096 040138
(PID.TID 0000.0001)  bi,bj,#(c/s/w): 0007 0001 040462 040067 040100
(PID.TID 0000.0001)  bi,bj,#(c/s/w): 0008 0001 040877 040589 040319
(PID.TID 0000.0001)  bi,bj,#(c/s/w): 0009 0001 031231 030937 030957
(PID.TID 0000.0001)  bi,bj,#(c/s/w): 0010 0001 020622 020046 018422
(PID.TID 0000.0001)  bi,bj,#(c/s/w): 0011 0001 039018 038680 038425
(PID.TID 0000.0001)  bi,bj,#(c/s/w): 0012 0001 019781 019699 019576
(PID.TID 0000.0001) 
(PID.TID 0000.0001)  Settings of generic controls:
(PID.TID 0000.0001)  -----------------------------
(PID.TID 0000.0001) 
(PID.TID 0000.0001)  -> 3d control, genarr3d no.  1 is in use
(PID.TID 0000.0001)       file       = xx_kapgm
(PID.TID 0000.0001)       weight     = wt_ones.bin
(PID.TID 0000.0001)       index      =  0201
(PID.TID 0000.0001)       ncvarindex =  0301
(PID.TID 0000.0001)  -> 3d control, genarr3d no.  2 is in use
(PID.TID 0000.0001)       file       = xx_kapredi
(PID.TID 0000.0001)       weight     = wt_ones.bin
(PID.TID 0000.0001)       index      =  0202
(PID.TID 0000.0001)       ncvarindex =  0302
(PID.TID 0000.0001)  -> 3d control, genarr3d no.  3 is in use
(PID.TID 0000.0001)       file       = xx_diffkr
(PID.TID 0000.0001)       weight     = wt_ones.bin
(PID.TID 0000.0001)       index      =  0203
(PID.TID 0000.0001)       ncvarindex =  0303
(PID.TID 0000.0001) 
(PID.TID 0000.0001) // =======================================================
(PID.TID 0000.0001) // control vector configuration  >>> END <<<
(PID.TID 0000.0001) // =======================================================
(PID.TID 0000.0001) 
(PID.TID 0000.0001) ------------------------------------------------------------
(PID.TID 0000.0001) DIAGNOSTICS_SET_LEVELS: done
(PID.TID 0000.0001)  Total Nb of available Diagnostics: ndiagt=   359
(PID.TID 0000.0001)  write list of available Diagnostics to file: available_diagnostics.log
(PID.TID 0000.0001) SETDIAG: Allocate  1 x  1 Levels for Diagnostic #    23 ETAN
(PID.TID 0000.0001) SETDIAG: Allocate  1 x  1 Levels for Diagnostic #   273 SIarea
(PID.TID 0000.0001) SETDIAG: Allocate  1 x  1 Levels for Diagnostic #   276 SIheff
(PID.TID 0000.0001) SETDIAG: Allocate  1 x  1 Levels for Diagnostic #   278 SIhsnow
(PID.TID 0000.0001) SETDIAG: Allocate  1 x  1 Levels for Diagnostic #    25 DETADT2
(PID.TID 0000.0001) SETDIAG: Allocate  1 x  1 Levels for Diagnostic #    73 PHIBOT
(PID.TID 0000.0001) SETDIAG: Allocate  1 x  1 Levels for Diagnostic #    83 sIceLoad
(PID.TID 0000.0001) SETDIAG: Allocate  1 x  1 Levels for Diagnostic #    77 MXLDEPTH
(PID.TID 0000.0001) SETDIAG: Allocate  1 x  1 Levels for Diagnostic #   359 oceSPDep
(PID.TID 0000.0001) SETDIAG: Allocate  1 x  1 Levels for Diagnostic #   298 SIatmQnt
(PID.TID 0000.0001) SETDIAG: Allocate  1 x  1 Levels for Diagnostic #   305 SIatmFW
(PID.TID 0000.0001) SETDIAG: Allocate  1 x  1 Levels for Diagnostic #    86 oceQnet
(PID.TID 0000.0001) SETDIAG: Allocate  1 x  1 Levels for Diagnostic #    84 oceFWflx
(PID.TID 0000.0001) SETDIAG: Allocate  1 x  1 Levels for Diagnostic #    80 oceTAUX
(PID.TID 0000.0001) SETDIAG: Allocate  1 x  1 Levels for Diagnostic #    81 oceTAUY
(PID.TID 0000.0001) SETDIAG: Allocate  1 x  1 Levels for Diagnostic #   325 ADVxHEFF
(PID.TID 0000.0001) SETDIAG: Allocate  1 x  1 Levels for Diagnostic #   326 ADVyHEFF
(PID.TID 0000.0001) SETDIAG: Allocate  1 x  1 Levels for Diagnostic #   327 DFxEHEFF
(PID.TID 0000.0001) SETDIAG: Allocate  1 x  1 Levels for Diagnostic #   328 DFyEHEFF
(PID.TID 0000.0001) SETDIAG: Allocate  1 x  1 Levels for Diagnostic #   333 ADVxSNOW
(PID.TID 0000.0001) SETDIAG: Allocate  1 x  1 Levels for Diagnostic #   334 ADVySNOW
(PID.TID 0000.0001) SETDIAG: Allocate  1 x  1 Levels for Diagnostic #   335 DFxESNOW
(PID.TID 0000.0001) SETDIAG: Allocate  1 x  1 Levels for Diagnostic #   336 DFyESNOW
(PID.TID 0000.0001) SETDIAG: Allocate  1 x  1 Levels for Diagnostic #   290 SIuice
(PID.TID 0000.0001) SETDIAG: Allocate  1 x  1 Levels for Diagnostic #   291 SIvice
(PID.TID 0000.0001) SETDIAG: Allocate 50 x  1 Levels for Diagnostic #    26 THETA
(PID.TID 0000.0001) SETDIAG: Allocate 50 x  1 Levels for Diagnostic #    27 SALT
(PID.TID 0000.0001) SETDIAG: Allocate 50 x  1 Levels for Diagnostic #    78 DRHODR
(PID.TID 0000.0001) SETDIAG: Allocate 50 x  1 Levels for Diagnostic #    45 UVELMASS
(PID.TID 0000.0001) SETDIAG: Allocate 50 x  1 Levels for Diagnostic #    46 VVELMASS
(PID.TID 0000.0001) SETDIAG: Allocate 50 x  1 Levels for Diagnostic #    47 WVELMASS
(PID.TID 0000.0001) SETDIAG: Allocate 50 x  1 Levels for Diagnostic #   258 GM_PsiX
(PID.TID 0000.0001) SETDIAG: Allocate 50 x  1 Levels for Diagnostic #   259 GM_PsiY
(PID.TID 0000.0001) SETDIAG: Allocate 50 x  1 Levels for Diagnostic #   134 DFxE_TH
(PID.TID 0000.0001) SETDIAG: Allocate 50 x  1 Levels for Diagnostic #   135 DFyE_TH
(PID.TID 0000.0001) SETDIAG: Allocate 50 x  1 Levels for Diagnostic #   131 ADVx_TH
(PID.TID 0000.0001) SETDIAG: Allocate 50 x  1 Levels for Diagnostic #   132 ADVy_TH
(PID.TID 0000.0001) SETDIAG: Allocate 50 x  1 Levels for Diagnostic #   141 DFxE_SLT
(PID.TID 0000.0001) SETDIAG: Allocate 50 x  1 Levels for Diagnostic #   142 DFyE_SLT
(PID.TID 0000.0001) SETDIAG: Allocate 50 x  1 Levels for Diagnostic #   138 ADVx_SLT
(PID.TID 0000.0001) SETDIAG: Allocate 50 x  1 Levels for Diagnostic #   139 ADVy_SLT
(PID.TID 0000.0001)   space allocated for all diagnostics:     825 levels
(PID.TID 0000.0001)   set mate pointer for diag #    80  oceTAUX  , Parms: UU      U1 , mate:    81
(PID.TID 0000.0001)   set mate pointer for diag #    81  oceTAUY  , Parms: VV      U1 , mate:    80
(PID.TID 0000.0001)   set mate pointer for diag #   325  ADVxHEFF , Parms: UU      M1 , mate:   326
(PID.TID 0000.0001)   set mate pointer for diag #   326  ADVyHEFF , Parms: VV      M1 , mate:   325
(PID.TID 0000.0001)   set mate pointer for diag #   327  DFxEHEFF , Parms: UU      M1 , mate:   328
(PID.TID 0000.0001)   set mate pointer for diag #   328  DFyEHEFF , Parms: VV      M1 , mate:   327
(PID.TID 0000.0001)   set mate pointer for diag #   333  ADVxSNOW , Parms: UU      M1 , mate:   334
(PID.TID 0000.0001)   set mate pointer for diag #   334  ADVySNOW , Parms: VV      M1 , mate:   333
(PID.TID 0000.0001)   set mate pointer for diag #   335  DFxESNOW , Parms: UU      M1 , mate:   336
(PID.TID 0000.0001)   set mate pointer for diag #   336  DFyESNOW , Parms: VV      M1 , mate:   335
(PID.TID 0000.0001)   set mate pointer for diag #   290  SIuice   , Parms: UU      M1 , mate:   291
(PID.TID 0000.0001)   set mate pointer for diag #   291  SIvice   , Parms: VV      M1 , mate:   290
(PID.TID 0000.0001)   set mate pointer for diag #    45  UVELMASS , Parms: UUr     MR , mate:    46
(PID.TID 0000.0001)   set mate pointer for diag #    46  VVELMASS , Parms: VVr     MR , mate:    45
(PID.TID 0000.0001)   set mate pointer for diag #   258  GM_PsiX  , Parms: UU      LR , mate:   259
(PID.TID 0000.0001)   set mate pointer for diag #   259  GM_PsiY  , Parms: VV      LR , mate:   258
(PID.TID 0000.0001)   set mate pointer for diag #   134  DFxE_TH  , Parms: UU      MR , mate:   135
(PID.TID 0000.0001)   set mate pointer for diag #   135  DFyE_TH  , Parms: VV      MR , mate:   134
(PID.TID 0000.0001)   set mate pointer for diag #   131  ADVx_TH  , Parms: UU      MR , mate:   132
(PID.TID 0000.0001)   set mate pointer for diag #   132  ADVy_TH  , Parms: VV      MR , mate:   131
(PID.TID 0000.0001)   set mate pointer for diag #   141  DFxE_SLT , Parms: UU      MR , mate:   142
(PID.TID 0000.0001)   set mate pointer for diag #   142  DFyE_SLT , Parms: VV      MR , mate:   141
(PID.TID 0000.0001)   set mate pointer for diag #   138  ADVx_SLT , Parms: UU      MR , mate:   139
(PID.TID 0000.0001)   set mate pointer for diag #   139  ADVy_SLT , Parms: VV      MR , mate:   138
(PID.TID 0000.0001) DIAGNOSTICS_SET_POINTERS: Set levels for Outp.Stream: state_2d_set1
(PID.TID 0000.0001)  Levels:       1.
(PID.TID 0000.0001) DIAGNOSTICS_SET_POINTERS: Set levels for Outp.Stream: state_3d_set1
(PID.TID 0000.0001)  Levels:       1.   2.   3.   4.   5.   6.   7.   8.   9.  10.  11.  12.  13.  14.  15.  16.  17.  18.  19.  20.
(PID.TID 0000.0001)  Levels:      21.  22.  23.  24.  25.  26.  27.  28.  29.  30.  31.  32.  33.  34.  35.  36.  37.  38.  39.  40.
(PID.TID 0000.0001)  Levels:      41.  42.  43.  44.  45.  46.  47.  48.  49.  50.
(PID.TID 0000.0001) DIAGNOSTICS_SET_POINTERS: Set levels for Outp.Stream: trsp_3d_set1
(PID.TID 0000.0001)  Levels:       1.   2.   3.   4.   5.   6.   7.   8.   9.  10.  11.  12.  13.  14.  15.  16.  17.  18.  19.  20.
(PID.TID 0000.0001)  Levels:      21.  22.  23.  24.  25.  26.  27.  28.  29.  30.  31.  32.  33.  34.  35.  36.  37.  38.  39.  40.
(PID.TID 0000.0001)  Levels:      41.  42.  43.  44.  45.  46.  47.  48.  49.  50.
(PID.TID 0000.0001) DIAGNOSTICS_SET_POINTERS: Set levels for Outp.Stream: trsp_3d_set2
(PID.TID 0000.0001)  Levels:       1.   2.   3.   4.   5.   6.   7.   8.   9.  10.  11.  12.  13.  14.  15.  16.  17.  18.  19.  20.
(PID.TID 0000.0001)  Levels:      21.  22.  23.  24.  25.  26.  27.  28.  29.  30.  31.  32.  33.  34.  35.  36.  37.  38.  39.  40.
(PID.TID 0000.0001)  Levels:      41.  42.  43.  44.  45.  46.  47.  48.  49.  50.
(PID.TID 0000.0001) DIAGNOSTICS_SET_POINTERS: done
(PID.TID 0000.0001) ------------------------------------------------------------
(PID.TID 0000.0001) DIAGSTATS_SET_REGIONS: define   0 regions:
(PID.TID 0000.0001) ------------------------------------------------------------
(PID.TID 0000.0001)   space allocated for all stats-diags:       0 levels
(PID.TID 0000.0001) DIAGSTATS_SET_POINTERS: done
(PID.TID 0000.0001) ------------------------------------------------------------
(PID.TID 0000.0001) INI_GLOBAL_DOMAIN: Found   0 CS-corner Pts in the domain
(PID.TID 0000.0001) %MON fCori_max                    =   1.4584096177006E-04
(PID.TID 0000.0001) %MON fCori_min                    =  -1.4429171327635E-04
(PID.TID 0000.0001) %MON fCori_mean                   =  -1.9531894197173E-06
(PID.TID 0000.0001) %MON fCori_sd                     =   1.0434730642309E-04
(PID.TID 0000.0001) %MON fCoriG_max                   =   1.4584247033981E-04
(PID.TID 0000.0001) %MON fCoriG_min                   =  -1.4435339896041E-04
(PID.TID 0000.0001) %MON fCoriG_mean                  =  -1.9303770726087E-06
(PID.TID 0000.0001) %MON fCoriG_sd                    =   1.0435958182593E-04
(PID.TID 0000.0001) %MON fCoriCos_max                 =   1.4584158744890E-04
(PID.TID 0000.0001) %MON fCoriCos_min                 =   6.6334365221135E-07
(PID.TID 0000.0001) %MON fCoriCos_mean                =   9.3876998486639E-05
(PID.TID 0000.0001) %MON fCoriCos_sd                  =   3.9559575367967E-05
(PID.TID 0000.0001) INI_CG2D: CG2D normalisation factor =  7.1522409280111305E-05
(PID.TID 0000.0001) INI_CG2D: cg2dTolerance = 7.112781640300954E-06 (Area=3.5801386115E+14)
(PID.TID 0000.0001) 
(PID.TID 0000.0001) // =======================================================
(PID.TID 0000.0001) // Model configuration
(PID.TID 0000.0001) // =======================================================
(PID.TID 0000.0001) //
(PID.TID 0000.0001) // "Physical" paramters ( PARM01 in namelist )
(PID.TID 0000.0001) //
(PID.TID 0000.0001) buoyancyRelation = /* Type of relation to get Buoyancy */
(PID.TID 0000.0001)               'OCEANIC'
(PID.TID 0000.0001)     ;
(PID.TID 0000.0001) fluidIsAir   =  /* fluid major constituent is Air */
(PID.TID 0000.0001)                   F
(PID.TID 0000.0001)     ;
(PID.TID 0000.0001) fluidIsWater =  /* fluid major constituent is Water */
(PID.TID 0000.0001)                   T
(PID.TID 0000.0001)     ;
(PID.TID 0000.0001) usingPCoords =  /* use p (or p*) vertical coordinate */
(PID.TID 0000.0001)                   F
(PID.TID 0000.0001)     ;
(PID.TID 0000.0001) usingZCoords =  /* use z (or z*) vertical coordinate */
(PID.TID 0000.0001)                   T
(PID.TID 0000.0001)     ;
(PID.TID 0000.0001) tRef =   /* Reference temperature profile ( oC or K ) */
(PID.TID 0000.0001)     3 @  2.300000000000000E+01,             /* K =  1:  3 */
(PID.TID 0000.0001)     3 @  2.200000000000000E+01,             /* K =  4:  6 */
(PID.TID 0000.0001)                 2.100000000000000E+01,      /* K =  7 */
(PID.TID 0000.0001)     2 @  2.000000000000000E+01,             /* K =  8:  9 */
(PID.TID 0000.0001)                 1.900000000000000E+01,      /* K = 10 */
(PID.TID 0000.0001)     2 @  1.800000000000000E+01,             /* K = 11: 12 */
(PID.TID 0000.0001)                 1.700000000000000E+01,      /* K = 13 */
(PID.TID 0000.0001)     2 @  1.600000000000000E+01,             /* K = 14: 15 */
(PID.TID 0000.0001)                 1.500000000000000E+01,      /* K = 16 */
(PID.TID 0000.0001)                 1.400000000000000E+01,      /* K = 17 */
(PID.TID 0000.0001)                 1.300000000000000E+01,      /* K = 18 */
(PID.TID 0000.0001)                 1.200000000000000E+01,      /* K = 19 */
(PID.TID 0000.0001)                 1.100000000000000E+01,      /* K = 20 */
(PID.TID 0000.0001)     2 @  9.000000000000000E+00,             /* K = 21: 22 */
(PID.TID 0000.0001)                 8.000000000000000E+00,      /* K = 23 */
(PID.TID 0000.0001)                 7.000000000000000E+00,      /* K = 24 */
(PID.TID 0000.0001)     2 @  6.000000000000000E+00,             /* K = 25: 26 */
(PID.TID 0000.0001)     2 @  5.000000000000000E+00,             /* K = 27: 28 */
(PID.TID 0000.0001)     3 @  4.000000000000000E+00,             /* K = 29: 31 */
(PID.TID 0000.0001)     3 @  3.000000000000000E+00,             /* K = 32: 34 */
(PID.TID 0000.0001)     4 @  2.000000000000000E+00,             /* K = 35: 38 */
(PID.TID 0000.0001)    12 @  1.000000000000000E+00              /* K = 39: 50 */
(PID.TID 0000.0001)     ;
(PID.TID 0000.0001) sRef =   /* Reference salinity profile ( g/kg ) */
(PID.TID 0000.0001)    50 @  3.450000000000000E+01              /* K =  1: 50 */
(PID.TID 0000.0001)     ;
(PID.TID 0000.0001) rhoRef =   /* Density vertical profile from (Ref,sRef)( kg/m^3 ) */
(PID.TID 0000.0001)                 1.023577603477196E+03,      /* K =  1 */
(PID.TID 0000.0001)                 1.023620777136617E+03,      /* K =  2 */
(PID.TID 0000.0001)                 1.023663941036695E+03,      /* K =  3 */
(PID.TID 0000.0001)                 1.023991015718490E+03,      /* K =  4 */
(PID.TID 0000.0001)                 1.024034306669897E+03,      /* K =  5 */
(PID.TID 0000.0001)                 1.024077587828753E+03,      /* K =  6 */
(PID.TID 0000.0001)                 1.024397096508654E+03,      /* K =  7 */
(PID.TID 0000.0001)                 1.024708673329142E+03,      /* K =  8 */
(PID.TID 0000.0001)                 1.024752319822224E+03,      /* K =  9 */
(PID.TID 0000.0001)                 1.025056259681613E+03,      /* K = 10 */
(PID.TID 0000.0001)                 1.025352644399205E+03,      /* K = 11 */
(PID.TID 0000.0001)                 1.025398957600777E+03,      /* K = 12 */
(PID.TID 0000.0001)                 1.025691882161156E+03,      /* K = 13 */
(PID.TID 0000.0001)                 1.025982177516916E+03,      /* K = 14 */
(PID.TID 0000.0001)                 1.026047240518975E+03,      /* K = 15 */
(PID.TID 0000.0001)                 1.026352942626987E+03,      /* K = 16 */
(PID.TID 0000.0001)                 1.026669770198047E+03,      /* K = 17 */
(PID.TID 0000.0001)                 1.027003315092154E+03,      /* K = 18 */
(PID.TID 0000.0001)                 1.027358849068998E+03,      /* K = 19 */
(PID.TID 0000.0001)                 1.027740686384669E+03,      /* K = 20 */
(PID.TID 0000.0001)                 1.028324553331053E+03,      /* K = 21 */
(PID.TID 0000.0001)                 1.028593221231610E+03,      /* K = 22 */
(PID.TID 0000.0001)                 1.029064475561974E+03,      /* K = 23 */
(PID.TID 0000.0001)                 1.029563084816846E+03,      /* K = 24 */
(PID.TID 0000.0001)                 1.030085114878761E+03,      /* K = 25 */
(PID.TID 0000.0001)                 1.030486089114683E+03,      /* K = 26 */
(PID.TID 0000.0001)                 1.031048075107123E+03,      /* K = 27 */
(PID.TID 0000.0001)                 1.031484375801639E+03,      /* K = 28 */
(PID.TID 0000.0001)                 1.032065171983561E+03,      /* K = 29 */
(PID.TID 0000.0001)                 1.032517922992319E+03,      /* K = 30 */
(PID.TID 0000.0001)                 1.032973670366665E+03,      /* K = 31 */
(PID.TID 0000.0001)                 1.033565488723493E+03,      /* K = 32 */
(PID.TID 0000.0001)                 1.034036918499537E+03,      /* K = 33 */
(PID.TID 0000.0001)                 1.034530048673366E+03,      /* K = 34 */
(PID.TID 0000.0001)                 1.035193531658509E+03,      /* K = 35 */
(PID.TID 0000.0001)                 1.035792065871340E+03,      /* K = 36 */
(PID.TID 0000.0001)                 1.036470923617515E+03,      /* K = 37 */
(PID.TID 0000.0001)                 1.037242016518006E+03,      /* K = 38 */
(PID.TID 0000.0001)                 1.038247118431009E+03,      /* K = 39 */
(PID.TID 0000.0001)                 1.039220297575330E+03,      /* K = 40 */
(PID.TID 0000.0001)                 1.040291819497536E+03,      /* K = 41 */
(PID.TID 0000.0001)                 1.041460110377147E+03,      /* K = 42 */
(PID.TID 0000.0001)                 1.042723334638967E+03,      /* K = 43 */
(PID.TID 0000.0001)                 1.044079512399653E+03,      /* K = 44 */
(PID.TID 0000.0001)                 1.045526523812687E+03,      /* K = 45 */
(PID.TID 0000.0001)                 1.047062113733185E+03,      /* K = 46 */
(PID.TID 0000.0001)                 1.048683896693754E+03,      /* K = 47 */
(PID.TID 0000.0001)                 1.050389362181617E+03,      /* K = 48 */
(PID.TID 0000.0001)                 1.052175880206080E+03,      /* K = 49 */
(PID.TID 0000.0001)                 1.054040707144287E+03       /* K = 50 */
(PID.TID 0000.0001)     ;
(PID.TID 0000.0001) dBdrRef = /* Vertical grad. of reference buoyancy [(m/s/r)^2] */
(PID.TID 0000.0001)     3 @  0.000000000000000E+00,             /* K =  1:  3 */
(PID.TID 0000.0001)                 2.706065538651213E-04,      /* K =  4 */
(PID.TID 0000.0001)     2 @  0.000000000000000E+00,             /* K =  5:  6 */
(PID.TID 0000.0001)                 2.632794562663490E-04,      /* K =  7 */
(PID.TID 0000.0001)                 2.554318021231947E-04,      /* K =  8 */
(PID.TID 0000.0001)                 0.000000000000000E+00,      /* K =  9 */
(PID.TID 0000.0001)                 2.461524232360561E-04,      /* K = 10 */
(PID.TID 0000.0001)                 2.348694431245364E-04,      /* K = 11 */
(PID.TID 0000.0001)                 0.000000000000000E+00,      /* K = 12 */
(PID.TID 0000.0001)                 2.056847859884566E-04,      /* K = 13 */
(PID.TID 0000.0001)                 1.777764506003336E-04,      /* K = 14 */
(PID.TID 0000.0001)                 0.000000000000000E+00,      /* K = 15 */
(PID.TID 0000.0001)                 1.203533867077665E-04,      /* K = 16 */
(PID.TID 0000.0001)                 9.288540355629585E-05,      /* K = 17 */
(PID.TID 0000.0001)                 7.115862770365155E-05,      /* K = 18 */
(PID.TID 0000.0001)                 5.484365820533800E-05,      /* K = 19 */
(PID.TID 0000.0001)                 4.290935507113214E-05,      /* K = 20 */
(PID.TID 0000.0001)                 6.658747741703880E-05,      /* K = 21 */
(PID.TID 0000.0001)                 0.000000000000000E+00,      /* K = 22 */
(PID.TID 0000.0001)                 2.323718420342036E-05,      /* K = 23 */
(PID.TID 0000.0001)                 1.974682037962757E-05,      /* K = 24 */
(PID.TID 0000.0001)                 1.709468932536602E-05,      /* K = 25 */
(PID.TID 0000.0001)                 0.000000000000000E+00,      /* K = 26 */
(PID.TID 0000.0001)                 1.455436545977052E-05,      /* K = 27 */
(PID.TID 0000.0001)                 0.000000000000000E+00,      /* K = 28 */
(PID.TID 0000.0001)                 1.315287111980149E-05,      /* K = 29 */
(PID.TID 0000.0001)     2 @  0.000000000000000E+00,             /* K = 30: 31 */
(PID.TID 0000.0001)                 1.240968507885233E-05,      /* K = 32 */
(PID.TID 0000.0001)     2 @  0.000000000000000E+00,             /* K = 33: 34 */
(PID.TID 0000.0001)                 1.045141607964570E-05,      /* K = 35 */
(PID.TID 0000.0001)     3 @  0.000000000000000E+00,             /* K = 36: 38 */
(PID.TID 0000.0001)                 6.628797113709505E-06,      /* K = 39 */
(PID.TID 0000.0001)    11 @  0.000000000000000E+00              /* K = 40: 50 */
(PID.TID 0000.0001)     ;
(PID.TID 0000.0001) useStrainTensionVisc= /* Use StrainTension Form of Viscous Operator */
(PID.TID 0000.0001)                   F
(PID.TID 0000.0001)     ;
(PID.TID 0000.0001) useVariableVisc = /* Use variable horizontal viscosity */
(PID.TID 0000.0001)                   T
(PID.TID 0000.0001)     ;
(PID.TID 0000.0001) useHarmonicVisc = /* Use harmonic horizontal viscosity */
(PID.TID 0000.0001)                   T
(PID.TID 0000.0001)     ;
(PID.TID 0000.0001) useBiharmonicVisc= /* Use biharmonic horiz.  viscosity */
(PID.TID 0000.0001)                   T
(PID.TID 0000.0001)     ;
(PID.TID 0000.0001) useSmag3D = /* Use isotropic 3-D Smagorinsky viscosity */
(PID.TID 0000.0001)                   F
(PID.TID 0000.0001)     ;
(PID.TID 0000.0001) viscAh  =   /* Lateral harmonic viscosity ( m^2/s ) */
(PID.TID 0000.0001)                 1.000000000000000E+00
(PID.TID 0000.0001)     ;
(PID.TID 0000.0001) viscAhMax = /* Maximum lateral harmonic viscosity ( m^2/s ) */
(PID.TID 0000.0001)                 1.000000000000000E+21
(PID.TID 0000.0001)     ;
(PID.TID 0000.0001) viscAhGrid = /* Grid dependent lateral harmonic viscosity ( non-dim. ) */
(PID.TID 0000.0001)                 2.000000000000000E-02
(PID.TID 0000.0001)     ;
(PID.TID 0000.0001) useFullLeith = /* Use Full Form of Leith Viscosity on/off flag*/
(PID.TID 0000.0001)                   F
(PID.TID 0000.0001)     ;
(PID.TID 0000.0001) useAreaViscLength = /* Use area for visc length instead of geom. mean*/
(PID.TID 0000.0001)                   F
(PID.TID 0000.0001)     ;
(PID.TID 0000.0001) viscC2leith = /* Leith harmonic visc. factor (on grad(vort),non-dim.) */
(PID.TID 0000.0001)                 0.000000000000000E+00
(PID.TID 0000.0001)     ;
(PID.TID 0000.0001) viscC2leithD = /* Leith harmonic viscosity factor (on grad(div),non-dim.)*/
(PID.TID 0000.0001)                 0.000000000000000E+00
(PID.TID 0000.0001)     ;
(PID.TID 0000.0001) viscC2LeithQG = /* QG Leith harmonic viscosity factor (non-dim.)*/
(PID.TID 0000.0001)                 0.000000000000000E+00
(PID.TID 0000.0001)     ;
(PID.TID 0000.0001) viscC2smag = /* Smagorinsky harmonic viscosity factor (non-dim.) */
(PID.TID 0000.0001)                 0.000000000000000E+00
(PID.TID 0000.0001)     ;
(PID.TID 0000.0001) viscA4  =   /* Lateral biharmonic viscosity ( m^4/s ) */
(PID.TID 0000.0001)                 0.000000000000000E+00
(PID.TID 0000.0001)     ;
(PID.TID 0000.0001) viscA4Max = /* Maximum biharmonic viscosity ( m^2/s ) */
(PID.TID 0000.0001)                 1.000000000000000E+21
(PID.TID 0000.0001)     ;
(PID.TID 0000.0001) viscA4Grid = /* Grid dependent biharmonic viscosity ( non-dim. ) */
(PID.TID 0000.0001)                 0.000000000000000E+00
(PID.TID 0000.0001)     ;
(PID.TID 0000.0001) viscC4leith = /* Leith biharm viscosity factor (on grad(vort), non-dim.)*/
(PID.TID 0000.0001)                 0.000000000000000E+00
(PID.TID 0000.0001)     ;
(PID.TID 0000.0001) viscC4leithD = /* Leith biharm viscosity factor (on grad(div), non-dim.) */
(PID.TID 0000.0001)                 0.000000000000000E+00
(PID.TID 0000.0001)     ;
(PID.TID 0000.0001) viscC4Smag = /* Smagorinsky biharm viscosity factor (non-dim) */
(PID.TID 0000.0001)                 0.000000000000000E+00
(PID.TID 0000.0001)     ;
(PID.TID 0000.0001) no_slip_sides =  /* Viscous BCs: No-slip sides */
(PID.TID 0000.0001)                   T
(PID.TID 0000.0001)     ;
(PID.TID 0000.0001) sideDragFactor = /* side-drag scaling factor (non-dim) */
(PID.TID 0000.0001)                 2.000000000000000E+00
(PID.TID 0000.0001)     ;
(PID.TID 0000.0001) viscArNr = /* vertical profile of vertical viscosity ( m^2/s )*/
(PID.TID 0000.0001)    50 @  1.000000000000000E-03              /* K =  1: 50 */
(PID.TID 0000.0001)     ;
(PID.TID 0000.0001) no_slip_bottom =  /* Viscous BCs: No-slip bottom */
(PID.TID 0000.0001)                   T
(PID.TID 0000.0001)     ;
(PID.TID 0000.0001) bottomVisc_pCell = /* Partial-cell in bottom Visc. BC */
(PID.TID 0000.0001)                   F
(PID.TID 0000.0001)     ;
(PID.TID 0000.0001) bottomDragLinear = /* linear bottom-drag coefficient ( m/s ) */
(PID.TID 0000.0001)                 0.000000000000000E+00
(PID.TID 0000.0001)     ;
(PID.TID 0000.0001) bottomDragQuadratic = /* quadratic bottom-drag coefficient (-) */
(PID.TID 0000.0001)                 1.000000000000000E-03
(PID.TID 0000.0001)     ;
(PID.TID 0000.0001) selectBotDragQuadr = /* select quadratic bottom drag options */
(PID.TID 0000.0001)                       0
(PID.TID 0000.0001)     ;
(PID.TID 0000.0001) diffKhT =   /* Laplacian diffusion of heat laterally ( m^2/s ) */
(PID.TID 0000.0001)                 1.000000000000000E+01
(PID.TID 0000.0001)     ;
(PID.TID 0000.0001) diffK4T =   /* Biharmonic diffusion of heat laterally ( m^4/s ) */
(PID.TID 0000.0001)                 0.000000000000000E+00
(PID.TID 0000.0001)     ;
(PID.TID 0000.0001) diffKhS =   /* Laplacian diffusion of salt laterally ( m^2/s ) */
(PID.TID 0000.0001)                 1.000000000000000E+01
(PID.TID 0000.0001)     ;
(PID.TID 0000.0001) diffK4S =   /* Biharmonic diffusion of salt laterally ( m^4/s ) */
(PID.TID 0000.0001)                 0.000000000000000E+00
(PID.TID 0000.0001)     ;
(PID.TID 0000.0001) diffKrNrT = /* vertical profile of vertical diffusion of Temp ( m^2/s )*/
(PID.TID 0000.0001)    50 @  1.000000000000000E-05              /* K =  1: 50 */
(PID.TID 0000.0001)     ;
(PID.TID 0000.0001) diffKrNrS = /* vertical profile of vertical diffusion of Salt ( m^2/s )*/
(PID.TID 0000.0001)    50 @  1.000000000000000E-05              /* K =  1: 50 */
(PID.TID 0000.0001)     ;
(PID.TID 0000.0001) diffKrBL79surf = /* Surface diffusion for Bryan and Lewis 79 ( m^2/s ) */
(PID.TID 0000.0001)                 0.000000000000000E+00
(PID.TID 0000.0001)     ;
(PID.TID 0000.0001) diffKrBL79deep = /* Deep diffusion for Bryan and Lewis 1979 ( m^2/s ) */
(PID.TID 0000.0001)                 0.000000000000000E+00
(PID.TID 0000.0001)     ;
(PID.TID 0000.0001) diffKrBL79scl = /* Depth scale for Bryan and Lewis 1979 ( m ) */
(PID.TID 0000.0001)                 2.000000000000000E+02
(PID.TID 0000.0001)     ;
(PID.TID 0000.0001) diffKrBL79Ho = /* Turning depth for Bryan and Lewis 1979 ( m ) */
(PID.TID 0000.0001)                -2.000000000000000E+03
(PID.TID 0000.0001)     ;
(PID.TID 0000.0001) ivdc_kappa = /* Implicit Vertical Diffusivity for Convection ( m^2/s) */
(PID.TID 0000.0001)                 1.000000000000000E+01
(PID.TID 0000.0001)     ;
(PID.TID 0000.0001) hMixCriteria=  /* Criteria for mixed-layer diagnostic */
(PID.TID 0000.0001)                -8.000000000000000E-01
(PID.TID 0000.0001)     ;
(PID.TID 0000.0001) dRhoSmall =  /* Parameter for mixed-layer diagnostic */
(PID.TID 0000.0001)                 1.000000000000000E-06
(PID.TID 0000.0001)     ;
(PID.TID 0000.0001) hMixSmooth=  /* Smoothing parameter for mixed-layer diagnostic */
(PID.TID 0000.0001)                 0.000000000000000E+00
(PID.TID 0000.0001)     ;
(PID.TID 0000.0001) eosType =  /* Type of Equation of State */
(PID.TID 0000.0001)               'JMD95Z'
(PID.TID 0000.0001)     ;
(PID.TID 0000.0001) eosRefP0 = /* Reference atmospheric pressure for EOS ( Pa ) */
(PID.TID 0000.0001)                 1.013250000000000E+05
(PID.TID 0000.0001)     ;
(PID.TID 0000.0001) selectP_inEOS_Zc = /* select pressure to use in EOS (0,1,2,3) */
(PID.TID 0000.0001)                       0
(PID.TID 0000.0001)     0= -g*rhoConst*z ; 1= pRef (from tRef,sRef); 2= Hyd P ; 3= Hyd+NH P
(PID.TID 0000.0001)     ;
(PID.TID 0000.0001) surf_pRef = /* Surface reference pressure ( Pa ) */
(PID.TID 0000.0001)                 1.013250000000000E+05
(PID.TID 0000.0001)     ;
(PID.TID 0000.0001) HeatCapacity_Cp =  /* Specific heat capacity ( J/kg/K ) */
(PID.TID 0000.0001)                 3.994000000000000E+03
(PID.TID 0000.0001)     ;
(PID.TID 0000.0001) celsius2K = /* 0 degree Celsius converted to Kelvin ( K ) */
(PID.TID 0000.0001)                 2.731500000000000E+02
(PID.TID 0000.0001)     ;
(PID.TID 0000.0001) rhoConst  = /* Reference density (Boussinesq)  ( kg/m^3 ) */
(PID.TID 0000.0001)                 1.029000000000000E+03
(PID.TID 0000.0001)     ;
(PID.TID 0000.0001) rhoFacC = /* normalized Reference density @ cell-Center (-) */
(PID.TID 0000.0001)    50 @  1.000000000000000E+00              /* K =  1: 50 */
(PID.TID 0000.0001)     ;
(PID.TID 0000.0001) rhoFacF = /* normalized Reference density @ W-Interface (-) */
(PID.TID 0000.0001)    51 @  1.000000000000000E+00              /* K =  1: 51 */
(PID.TID 0000.0001)     ;
(PID.TID 0000.0001) rhoConstFresh = /* Fresh-water reference density ( kg/m^3 ) */
(PID.TID 0000.0001)                 1.000000000000000E+03
(PID.TID 0000.0001)     ;
(PID.TID 0000.0001) gravity =   /* Gravitational acceleration ( m/s^2 ) */
(PID.TID 0000.0001)                 9.810000000000000E+00
(PID.TID 0000.0001)     ;
(PID.TID 0000.0001) gBaro =   /* Barotropic gravity ( m/s^2 ) */
(PID.TID 0000.0001)                 9.810000000000000E+00
(PID.TID 0000.0001)     ;
(PID.TID 0000.0001) gravFacC = /* gravity factor (vs surf.) @ cell-Center (-) */
(PID.TID 0000.0001)    50 @  1.000000000000000E+00              /* K =  1: 50 */
(PID.TID 0000.0001)     ;
(PID.TID 0000.0001) gravFacF = /* gravity factor (vs surf.) @ W-Interface (-) */
(PID.TID 0000.0001)    51 @  1.000000000000000E+00              /* K =  1: 51 */
(PID.TID 0000.0001)     ;
(PID.TID 0000.0001) rotationPeriod =   /* Rotation Period ( s ) */
(PID.TID 0000.0001)                 8.616400000000000E+04
(PID.TID 0000.0001)     ;
(PID.TID 0000.0001) omega =   /* Angular velocity ( rad/s ) */
(PID.TID 0000.0001)                 7.292123516990375E-05
(PID.TID 0000.0001)     ;
(PID.TID 0000.0001) f0 =   /* Reference coriolis parameter ( 1/s ) */
(PID.TID 0000.0001)                 1.000000000000000E-04
(PID.TID 0000.0001)     ;
(PID.TID 0000.0001) beta =   /* Beta ( 1/(m.s) ) */
(PID.TID 0000.0001)                 9.999999999999999E-12
(PID.TID 0000.0001)     ;
(PID.TID 0000.0001) fPrime =   /* Second coriolis parameter ( 1/s ) */
(PID.TID 0000.0001)                 0.000000000000000E+00
(PID.TID 0000.0001)     ;
(PID.TID 0000.0001) rigidLid =   /* Rigid lid on/off flag */
(PID.TID 0000.0001)                   F
(PID.TID 0000.0001)     ;
(PID.TID 0000.0001) implicitFreeSurface =   /* Implicit free surface on/off flag */
(PID.TID 0000.0001)                   T
(PID.TID 0000.0001)     ;
(PID.TID 0000.0001) freeSurfFac =   /* Implicit free surface factor */
(PID.TID 0000.0001)                 1.000000000000000E+00
(PID.TID 0000.0001)     ;
(PID.TID 0000.0001) implicSurfPress =  /* Surface Pressure implicit factor (0-1) */
(PID.TID 0000.0001)                 1.000000000000000E+00
(PID.TID 0000.0001)     ;
(PID.TID 0000.0001) implicDiv2DFlow =  /* Barot. Flow Div. implicit factor (0-1) */
(PID.TID 0000.0001)                 1.000000000000000E+00
(PID.TID 0000.0001)     ;
(PID.TID 0000.0001) uniformLin_PhiSurf = /* use uniform Bo_surf on/off flag */
(PID.TID 0000.0001)                   T
(PID.TID 0000.0001)     ;
(PID.TID 0000.0001) uniformFreeSurfLev = /* free-surface level-index is uniform */
(PID.TID 0000.0001)                   T
(PID.TID 0000.0001)     ;
(PID.TID 0000.0001) sIceLoadFac =  /* scale factor for sIceLoad (0-1) */
(PID.TID 0000.0001)                 1.000000000000000E+00
(PID.TID 0000.0001)     ;
(PID.TID 0000.0001) hFacMin =   /* minimum partial cell factor (hFac) */
(PID.TID 0000.0001)                 2.000000000000000E-01
(PID.TID 0000.0001)     ;
(PID.TID 0000.0001) hFacMinDr = /* minimum partial cell thickness ( m) */
(PID.TID 0000.0001)                 5.000000000000000E+00
(PID.TID 0000.0001)     ;
(PID.TID 0000.0001) exactConserv =  /* Exact Volume Conservation on/off flag */
(PID.TID 0000.0001)                   T
(PID.TID 0000.0001)     ;
(PID.TID 0000.0001) linFSConserveTr = /* Tracer correction for Lin Free Surface on/off flag */
(PID.TID 0000.0001)                   F
(PID.TID 0000.0001)     ;
(PID.TID 0000.0001) nonlinFreeSurf = /* Non-linear Free Surf. options (-1,0,1,2,3)*/
(PID.TID 0000.0001)                       4
(PID.TID 0000.0001)      -1,0= Off ; 1,2,3= On, 2=+rescale gU,gV, 3=+update cg2d solv.
(PID.TID 0000.0001)     ;
(PID.TID 0000.0001) hFacInf =   /* lower threshold for hFac (nonlinFreeSurf only)*/
(PID.TID 0000.0001)                 2.000000000000000E-01
(PID.TID 0000.0001)     ;
(PID.TID 0000.0001) hFacSup =   /* upper threshold for hFac (nonlinFreeSurf only)*/
(PID.TID 0000.0001)                 2.000000000000000E+00
(PID.TID 0000.0001)     ;
(PID.TID 0000.0001) select_rStar = /* r* Vertical coord. options (=0 r coord.; >0 uses r*)*/
(PID.TID 0000.0001)                       2
(PID.TID 0000.0001)     ;
(PID.TID 0000.0001) useRealFreshWaterFlux = /* Real Fresh Water Flux on/off flag*/
(PID.TID 0000.0001)                   T
(PID.TID 0000.0001)     ;
(PID.TID 0000.0001) temp_EvPrRn = /* Temp. of Evap/Prec/R (UNSET=use local T)(oC)*/
(PID.TID 0000.0001)                 1.234567000000000E+05
(PID.TID 0000.0001)     ;
(PID.TID 0000.0001) salt_EvPrRn = /* Salin. of Evap/Prec/R (UNSET=use local S)(g/kg)*/
(PID.TID 0000.0001)                 0.000000000000000E+00
(PID.TID 0000.0001)     ;
(PID.TID 0000.0001) selectAddFluid = /* option for mass source/sink of fluid (=0: off) */
(PID.TID 0000.0001)                       0
(PID.TID 0000.0001)     ;
(PID.TID 0000.0001) temp_addMass = /* Temp. of addMass array (UNSET=use local T)(oC)*/
(PID.TID 0000.0001)                 1.234567000000000E+05
(PID.TID 0000.0001)     ;
(PID.TID 0000.0001) salt_addMass = /* Salin. of addMass array (UNSET=use local S)(g/kg)*/
(PID.TID 0000.0001)                 0.000000000000000E+00
(PID.TID 0000.0001)     ;
(PID.TID 0000.0001) use3Dsolver = /* use 3-D pressure solver on/off flag */
(PID.TID 0000.0001)                   F
(PID.TID 0000.0001)     ;
(PID.TID 0000.0001) nonHydrostatic =  /* Non-Hydrostatic on/off flag */
(PID.TID 0000.0001)                   F
(PID.TID 0000.0001)     ;
(PID.TID 0000.0001) nh_Am2 = /* Non-Hydrostatic terms scaling factor */
(PID.TID 0000.0001)                 1.000000000000000E+00
(PID.TID 0000.0001)     ;
(PID.TID 0000.0001) implicitNHPress = /* Non-Hyd Pressure implicit factor (0-1)*/
(PID.TID 0000.0001)                 1.000000000000000E+00
(PID.TID 0000.0001)     ;
(PID.TID 0000.0001) selectNHfreeSurf = /* Non-Hyd (free-)Surface option */
(PID.TID 0000.0001)                       0
(PID.TID 0000.0001)     ;
(PID.TID 0000.0001) quasiHydrostatic = /* Quasi-Hydrostatic on/off flag */
(PID.TID 0000.0001)                   F
(PID.TID 0000.0001)     ;
(PID.TID 0000.0001) calc_wVelocity = /* vertical velocity calculation on/off flag */
(PID.TID 0000.0001)                   T
(PID.TID 0000.0001)     ;
(PID.TID 0000.0001) momStepping =  /* Momentum equation on/off flag */
(PID.TID 0000.0001)                   T
(PID.TID 0000.0001)     ;
(PID.TID 0000.0001) vectorInvariantMomentum= /* Vector-Invariant Momentum on/off */
(PID.TID 0000.0001)                   T
(PID.TID 0000.0001)     ;
(PID.TID 0000.0001) momAdvection =  /* Momentum advection on/off flag */
(PID.TID 0000.0001)                   T
(PID.TID 0000.0001)     ;
(PID.TID 0000.0001) momViscosity =  /* Momentum viscosity on/off flag */
(PID.TID 0000.0001)                   T
(PID.TID 0000.0001)     ;
(PID.TID 0000.0001) momImplVertAdv= /* Momentum implicit vert. advection on/off*/
(PID.TID 0000.0001)                   F
(PID.TID 0000.0001)     ;
(PID.TID 0000.0001) implicitViscosity = /* Implicit viscosity on/off flag */
(PID.TID 0000.0001)                   T
(PID.TID 0000.0001)     ;
(PID.TID 0000.0001) selectImplicitDrag= /* Implicit bot Drag options (0,1,2)*/
(PID.TID 0000.0001)                       0
(PID.TID 0000.0001)     0= Expl. ; 1= Impl. on provis. Vel ; 2= Fully Impl (with surf.P)
(PID.TID 0000.0001)     ;
(PID.TID 0000.0001) metricTerms =  /* metric-Terms on/off flag */
(PID.TID 0000.0001)                   F
(PID.TID 0000.0001)     ;
(PID.TID 0000.0001) useNHMTerms = /* Non-Hydrostatic Metric-Terms on/off */
(PID.TID 0000.0001)                   F
(PID.TID 0000.0001)     ;
(PID.TID 0000.0001) selectCoriMap = /* Coriolis Map options (0,1,2,3)*/
(PID.TID 0000.0001)                       2
(PID.TID 0000.0001)     0= f-Plane ; 1= Beta-Plane ; 2= Spherical ; 3= read from file
(PID.TID 0000.0001)     ;
(PID.TID 0000.0001) use3dCoriolis = /* 3-D Coriolis on/off flag */
(PID.TID 0000.0001)                   F
(PID.TID 0000.0001)     ;
(PID.TID 0000.0001) useCoriolis =  /* Coriolis on/off flag */
(PID.TID 0000.0001)                   T
(PID.TID 0000.0001)     ;
(PID.TID 0000.0001) useCDscheme =  /* CD scheme on/off flag */
(PID.TID 0000.0001)                   F
(PID.TID 0000.0001)     ;
(PID.TID 0000.0001) selectCoriScheme= /* Scheme selector for Coriolis-Term */
(PID.TID 0000.0001)                       1
(PID.TID 0000.0001)    = 0 : original discretization (simple averaging, no hFac)
(PID.TID 0000.0001)    = 1 : Wet-point averaging (Jamar & Ozer 1986)
(PID.TID 0000.0001)    = 2 : hFac weighted average (Angular Mom. conserving)
(PID.TID 0000.0001)    = 3 : energy conserving scheme using hFac weighted average
(PID.TID 0000.0001)     ;
(PID.TID 0000.0001) useAbsVorticity= /* V.I Works with f+zeta in Coriolis */
(PID.TID 0000.0001)                   F
(PID.TID 0000.0001)     ;
(PID.TID 0000.0001) selectVortScheme= /* V.I Scheme selector for Vorticity-Term */
(PID.TID 0000.0001)                       1
(PID.TID 0000.0001)    = 0 : enstrophy (Shallow-Water Eq.) conserving scheme by Sadourny, JAS 75
(PID.TID 0000.0001)    = 1 : same as 0 with modified hFac
(PID.TID 0000.0001)    = 2 : energy conserving scheme (used by Sadourny in JAS 75 paper)
(PID.TID 0000.0001)    = 3 : energy (general) and enstrophy (2D, nonDiv.) conserving scheme
(PID.TID 0000.0001)          from Sadourny (Burridge & Haseler, ECMWF Rep.4, 1977)
(PID.TID 0000.0001)     ;
(PID.TID 0000.0001) useJamartMomAdv= /* V.I Non-linear terms Jamart flag */
(PID.TID 0000.0001)                   F
(PID.TID 0000.0001)     ;
(PID.TID 0000.0001) upwindVorticity= /* V.I Upwind bias vorticity flag */
(PID.TID 0000.0001)                   F
(PID.TID 0000.0001)     ;
(PID.TID 0000.0001) highOrderVorticity= /* V.I High order vort. advect. flag */
(PID.TID 0000.0001)                   F
(PID.TID 0000.0001)     ;
(PID.TID 0000.0001) upwindShear= /* V.I Upwind vertical Shear advection flag */
(PID.TID 0000.0001)                   F
(PID.TID 0000.0001)     ;
(PID.TID 0000.0001) selectKEscheme= /* V.I Kinetic Energy scheme selector */
(PID.TID 0000.0001)                       0
(PID.TID 0000.0001)     ;
(PID.TID 0000.0001) momForcing =  /* Momentum forcing on/off flag */
(PID.TID 0000.0001)                   T
(PID.TID 0000.0001)     ;
(PID.TID 0000.0001) momTidalForcing = /* Momentum Tidal forcing on/off flag */
(PID.TID 0000.0001)                   T
(PID.TID 0000.0001)     ;
(PID.TID 0000.0001) momPressureForcing =  /* Momentum pressure term on/off flag */
(PID.TID 0000.0001)                   T
(PID.TID 0000.0001)     ;
(PID.TID 0000.0001) implicitIntGravWave= /* Implicit Internal Gravity Wave flag */
(PID.TID 0000.0001)                   F
(PID.TID 0000.0001)     ;
(PID.TID 0000.0001) staggerTimeStep =    /* Stagger time stepping on/off flag */
(PID.TID 0000.0001)                   T
(PID.TID 0000.0001)     ;
(PID.TID 0000.0001) doResetHFactors = /* reset thickness factors @ each time-step */
(PID.TID 0000.0001)                   T
(PID.TID 0000.0001)     ;
(PID.TID 0000.0001) multiDimAdvection =  /* enable/disable Multi-Dim Advection */
(PID.TID 0000.0001)                   T
(PID.TID 0000.0001)     ;
(PID.TID 0000.0001) useMultiDimAdvec =   /* Multi-Dim Advection is/is-not used */
(PID.TID 0000.0001)                   T
(PID.TID 0000.0001)     ;
(PID.TID 0000.0001) implicitDiffusion = /* Implicit Diffusion on/off flag */
(PID.TID 0000.0001)                   T
(PID.TID 0000.0001)     ;
(PID.TID 0000.0001) tempStepping =  /* Temperature equation on/off flag */
(PID.TID 0000.0001)                   T
(PID.TID 0000.0001)     ;
(PID.TID 0000.0001) tempAdvection = /* Temperature advection on/off flag */
(PID.TID 0000.0001)                   T
(PID.TID 0000.0001)     ;
(PID.TID 0000.0001) tempImplVertAdv = /* Temp. implicit vert. advection on/off */
(PID.TID 0000.0001)                   T
(PID.TID 0000.0001)     ;
(PID.TID 0000.0001) tempForcing  =  /* Temperature forcing on/off flag */
(PID.TID 0000.0001)                   T
(PID.TID 0000.0001)     ;
(PID.TID 0000.0001) balanceQnet  =  /* balance net heat-flux on/off flag */
(PID.TID 0000.0001)                   F
(PID.TID 0000.0001)     ;
(PID.TID 0000.0001) doThetaClimRelax = /* apply SST relaxation on/off flag */
(PID.TID 0000.0001)                   F
(PID.TID 0000.0001)     ;
(PID.TID 0000.0001) balanceThetaClimRelax= /* balance SST relaxation on/off flag */
(PID.TID 0000.0001)                   F
(PID.TID 0000.0001)     ;
(PID.TID 0000.0001) tempIsActiveTr = /* Temp. is a dynamically Active Tracer */
(PID.TID 0000.0001)                   T
(PID.TID 0000.0001)     ;
(PID.TID 0000.0001) saltStepping =  /* Salinity equation on/off flag */
(PID.TID 0000.0001)                   T
(PID.TID 0000.0001)     ;
(PID.TID 0000.0001) saltAdvection = /* Salinity advection on/off flag */
(PID.TID 0000.0001)                   T
(PID.TID 0000.0001)     ;
(PID.TID 0000.0001) saltImplVertAdv = /* Sali. implicit vert. advection on/off */
(PID.TID 0000.0001)                   T
(PID.TID 0000.0001)     ;
(PID.TID 0000.0001) saltForcing  =  /* Salinity forcing on/off flag */
(PID.TID 0000.0001)                   T
(PID.TID 0000.0001)     ;
(PID.TID 0000.0001) selectBalanceEmPmR = /* balancing glob.mean EmPmR selector */
(PID.TID 0000.0001)                       1
(PID.TID 0000.0001)     ;
(PID.TID 0000.0001) doSaltClimRelax = /* apply SSS relaxation on/off flag */
(PID.TID 0000.0001)                   F
(PID.TID 0000.0001)     ;
(PID.TID 0000.0001) balanceSaltClimRelax= /* balance SSS relaxation on/off flag */
(PID.TID 0000.0001)                   T
(PID.TID 0000.0001)     ;
(PID.TID 0000.0001) saltIsActiveTr = /* Salt  is a dynamically Active Tracer */
(PID.TID 0000.0001)                   T
(PID.TID 0000.0001)     ;
(PID.TID 0000.0001)  readBinaryPrec = /* Precision used for reading binary files */
(PID.TID 0000.0001)                      32
(PID.TID 0000.0001)     ;
(PID.TID 0000.0001) writeBinaryPrec = /* Precision used for writing binary files */
(PID.TID 0000.0001)                      32
(PID.TID 0000.0001)     ;
(PID.TID 0000.0001) balancePrintMean = /* print means for balancing fluxes */
(PID.TID 0000.0001)                   F
(PID.TID 0000.0001)     ;
(PID.TID 0000.0001)  rwSuffixType =   /* select format of mds file suffix */
(PID.TID 0000.0001)                       0
(PID.TID 0000.0001)    = 0 : myIter (I10.10) ;   = 1 : 100*myTime (100th sec) ;
(PID.TID 0000.0001)    = 2 : myTime (seconds);   = 3 : myTime/360 (10th of hr);
(PID.TID 0000.0001)    = 4 : myTime/3600 (hours)
(PID.TID 0000.0001)     ;
(PID.TID 0000.0001)  globalFiles = /* write "global" (=not per tile) files */
(PID.TID 0000.0001)                   F
(PID.TID 0000.0001)     ;
(PID.TID 0000.0001)  useSingleCpuIO = /* only master MPI process does I/O */
(PID.TID 0000.0001)                   T
(PID.TID 0000.0001)     ;
(PID.TID 0000.0001)  useSingleCpuInput = /* only master process reads input */
(PID.TID 0000.0001)                   T
(PID.TID 0000.0001)     ;
(PID.TID 0000.0001) /* debLev[*]  : level of debug & auxiliary message printing */
(PID.TID 0000.0001) debLevZero =  0 ; /* level of disabled aux. msg printing */
(PID.TID 0000.0001)    debLevA =  1 ; /* level of minimum  aux. msg printing */
(PID.TID 0000.0001)    debLevB =  2 ; /* level of low aux. print (report read-file opening)*/
(PID.TID 0000.0001)    debLevC =  3 ; /* level of moderate debug prt (most pkgs debug msg) */
(PID.TID 0000.0001)    debLevD =  4 ; /* level of enhanced debug prt (add DEBUG_STATS prt) */
(PID.TID 0000.0001)    debLevE =  5 ; /* level of extensive debug printing */
(PID.TID 0000.0001) debugLevel =  /* select debug printing level */
(PID.TID 0000.0001)                       1
(PID.TID 0000.0001)     ;
(PID.TID 0000.0001)  plotLevel =  /* select PLOT_FIELD printing level */
(PID.TID 0000.0001)                       1
(PID.TID 0000.0001)     ;
(PID.TID 0000.0001) //
(PID.TID 0000.0001) // Elliptic solver(s) paramters ( PARM02 in namelist )
(PID.TID 0000.0001) //
(PID.TID 0000.0001) cg2dMaxIters =   /* Upper limit on 2d con. grad iterations  */
(PID.TID 0000.0001)                     300
(PID.TID 0000.0001)     ;
(PID.TID 0000.0001) cg2dMinItersNSA =   /* Minimum number of iterations of 2d con. grad solver  */
(PID.TID 0000.0001)                       0
(PID.TID 0000.0001)     ;
(PID.TID 0000.0001) cg2dUseMinResSol= /* use cg2d last-iter(=0) / min-resid.(=1) solution */
(PID.TID 0000.0001)                       0
(PID.TID 0000.0001)     ;
(PID.TID 0000.0001) cg2dTargetResidual =   /* 2d con. grad target residual  */
(PID.TID 0000.0001)                 1.000000000000000E-07
(PID.TID 0000.0001)     ;
(PID.TID 0000.0001) cg2dTargetResWunit =   /* CG2d target residual [W units] */
(PID.TID 0000.0001)                 1.000000000000000E-12
(PID.TID 0000.0001)     ;
(PID.TID 0000.0001) cg2dPreCondFreq =   /* Freq. for updating cg2d preconditioner */
(PID.TID 0000.0001)                       1
(PID.TID 0000.0001)     ;
(PID.TID 0000.0001) useSRCGSolver =  /* use single reduction CG solver(s) */
(PID.TID 0000.0001)                   F
(PID.TID 0000.0001)     ;
(PID.TID 0000.0001) useNSACGSolver =  /* use not-self-adjoint CG solver */
(PID.TID 0000.0001)                   F
(PID.TID 0000.0001)     ;
(PID.TID 0000.0001) printResidualFreq = /* Freq. for printing CG residual */
(PID.TID 0000.0001)                       0
(PID.TID 0000.0001)     ;
(PID.TID 0000.0001) //
(PID.TID 0000.0001) // Time stepping paramters ( PARM03 in namelist )
(PID.TID 0000.0001) //
(PID.TID 0000.0001) deltaTMom =   /* Momentum equation timestep ( s ) */
(PID.TID 0000.0001)                 3.600000000000000E+03
(PID.TID 0000.0001)     ;
(PID.TID 0000.0001) deltaTFreeSurf = /* FreeSurface equation timestep ( s ) */
(PID.TID 0000.0001)                 3.600000000000000E+03
(PID.TID 0000.0001)     ;
(PID.TID 0000.0001) dTtracerLev =  /* Tracer equation timestep ( s ) */
(PID.TID 0000.0001)    50 @  3.600000000000000E+03              /* K =  1: 50 */
(PID.TID 0000.0001)     ;
(PID.TID 0000.0001) deltaTClock  =   /* Model clock timestep ( s ) */
(PID.TID 0000.0001)                 3.600000000000000E+03
(PID.TID 0000.0001)     ;
(PID.TID 0000.0001) cAdjFreq =   /* Convective adjustment interval ( s ) */
(PID.TID 0000.0001)                 0.000000000000000E+00
(PID.TID 0000.0001)     ;
(PID.TID 0000.0001) momForcingOutAB = /* =1: take Momentum Forcing out of Adams-Bash. stepping */
(PID.TID 0000.0001)                       1
(PID.TID 0000.0001)     ;
(PID.TID 0000.0001) tracForcingOutAB = /* =1: take T,S,pTr Forcing out of Adams-Bash. stepping */
(PID.TID 0000.0001)                       1
(PID.TID 0000.0001)     ;
(PID.TID 0000.0001) momDissip_In_AB = /* put Dissipation Tendency in Adams-Bash. stepping */
(PID.TID 0000.0001)                   F
(PID.TID 0000.0001)     ;
(PID.TID 0000.0001) doAB_onGtGs = /* apply AB on Tendencies (rather than on T,S)*/
(PID.TID 0000.0001)                   F
(PID.TID 0000.0001)     ;
(PID.TID 0000.0001) abEps =   /* Adams-Bashforth-2 stabilizing weight */
(PID.TID 0000.0001)                 1.000000000000000E-02
(PID.TID 0000.0001)     ;
(PID.TID 0000.0001) alph_AB =   /* Adams-Bashforth-3 primary factor */
(PID.TID 0000.0001)                 5.000000000000000E-01
(PID.TID 0000.0001)     ;
(PID.TID 0000.0001) beta_AB =   /* Adams-Bashforth-3 secondary factor */
(PID.TID 0000.0001)                 2.811050000000000E-01
(PID.TID 0000.0001)     ;
(PID.TID 0000.0001) startFromPickupAB2= /* start from AB-2 pickup */
(PID.TID 0000.0001)                   F
(PID.TID 0000.0001)     ;
(PID.TID 0000.0001) applyExchUV_early = /* Apply EXCH to U,V earlier in time-step */
(PID.TID 0000.0001)                   F
(PID.TID 0000.0001)     ;
(PID.TID 0000.0001) pickupStrictlyMatch= /* stop if pickup do not strictly match */
(PID.TID 0000.0001)                   F
(PID.TID 0000.0001)     ;
(PID.TID 0000.0001) nIter0   =   /* Run starting timestep number */
(PID.TID 0000.0001)                       1
(PID.TID 0000.0001)     ;
(PID.TID 0000.0001) nTimeSteps = /* Number of timesteps */
(PID.TID 0000.0001)                       8
(PID.TID 0000.0001)     ;
(PID.TID 0000.0001) nEndIter =   /* Run ending timestep number */
(PID.TID 0000.0001)                       9
(PID.TID 0000.0001)     ;
(PID.TID 0000.0001) baseTime =   /* Model base time ( s ) */
(PID.TID 0000.0001)                 0.000000000000000E+00
(PID.TID 0000.0001)     ;
(PID.TID 0000.0001) startTime =  /* Run start time ( s ) */
(PID.TID 0000.0001)                 3.600000000000000E+03
(PID.TID 0000.0001)     ;
(PID.TID 0000.0001) endTime  =   /* Integration ending time ( s ) */
(PID.TID 0000.0001)                 3.240000000000000E+04
(PID.TID 0000.0001)     ;
(PID.TID 0000.0001) pChkPtFreq = /* Permanent restart/pickup file interval ( s ) */
(PID.TID 0000.0001)                 3.153600000000000E+07
(PID.TID 0000.0001)     ;
(PID.TID 0000.0001) chkPtFreq  = /* Rolling restart/pickup file interval ( s ) */
(PID.TID 0000.0001)                 3.153600000000000E+07
(PID.TID 0000.0001)     ;
(PID.TID 0000.0001) pickup_write_mdsio =   /* Model IO flag. */
(PID.TID 0000.0001)                   T
(PID.TID 0000.0001)     ;
(PID.TID 0000.0001) pickup_read_mdsio =   /* Model IO flag. */
(PID.TID 0000.0001)                   T
(PID.TID 0000.0001)     ;
(PID.TID 0000.0001) writePickupAtEnd =   /* Model IO flag. */
(PID.TID 0000.0001)                   T
(PID.TID 0000.0001)     ;
(PID.TID 0000.0001) dumpFreq =   /* Model state write out interval ( s ). */
(PID.TID 0000.0001)                 0.000000000000000E+00
(PID.TID 0000.0001)     ;
(PID.TID 0000.0001) dumpInitAndLast= /* write out Initial & Last iter. model state */
(PID.TID 0000.0001)                   T
(PID.TID 0000.0001)     ;
(PID.TID 0000.0001) snapshot_mdsio =   /* Model IO flag. */
(PID.TID 0000.0001)                   T
(PID.TID 0000.0001)     ;
(PID.TID 0000.0001) monitorFreq =   /* Monitor output interval ( s ). */
(PID.TID 0000.0001)                 3.600000000000000E+03
(PID.TID 0000.0001)     ;
(PID.TID 0000.0001) monitorSelect = /* select group of variables to monitor */
(PID.TID 0000.0001)                       3
(PID.TID 0000.0001)     ;
(PID.TID 0000.0001) monitor_stdio =   /* Model IO flag. */
(PID.TID 0000.0001)                   T
(PID.TID 0000.0001)     ;
(PID.TID 0000.0001) externForcingPeriod =   /* forcing period (s) */
(PID.TID 0000.0001)                 0.000000000000000E+00
(PID.TID 0000.0001)     ;
(PID.TID 0000.0001) externForcingCycle =   /* period of the cyle (s). */
(PID.TID 0000.0001)                 0.000000000000000E+00
(PID.TID 0000.0001)     ;
(PID.TID 0000.0001) tauThetaClimRelax =   /* relaxation time scale (s) */
(PID.TID 0000.0001)                 0.000000000000000E+00
(PID.TID 0000.0001)     ;
(PID.TID 0000.0001) tauSaltClimRelax =   /* relaxation time scale (s) */
(PID.TID 0000.0001)                 0.000000000000000E+00
(PID.TID 0000.0001)     ;
(PID.TID 0000.0001) latBandClimRelax =   /* max. Lat. where relaxation */
(PID.TID 0000.0001)                 1.800000000000000E+02
(PID.TID 0000.0001)     ;
(PID.TID 0000.0001) //
(PID.TID 0000.0001) // Gridding paramters ( PARM04 in namelist )
(PID.TID 0000.0001) //
(PID.TID 0000.0001) usingCartesianGrid = /* Cartesian coordinates flag ( True/False ) */
(PID.TID 0000.0001)                   F
(PID.TID 0000.0001)     ;
(PID.TID 0000.0001) usingCylindricalGrid = /* Cylindrical coordinates flag ( True/False ) */
(PID.TID 0000.0001)                   F
(PID.TID 0000.0001)     ;
(PID.TID 0000.0001) usingSphericalPolarGrid = /* Spherical coordinates flag ( True/False ) */
(PID.TID 0000.0001)                   F
(PID.TID 0000.0001)     ;
(PID.TID 0000.0001) usingCurvilinearGrid = /* Curvilinear coordinates flag ( True/False ) */
(PID.TID 0000.0001)                   T
(PID.TID 0000.0001)     ;
(PID.TID 0000.0001) useMin4hFacEdges = /* set hFacW,S as minimum of adjacent hFacC factor */
(PID.TID 0000.0001)                   F
(PID.TID 0000.0001)     ;
(PID.TID 0000.0001) interViscAr_pCell = /* account for partial-cell in interior vert. viscosity */
(PID.TID 0000.0001)                   F
(PID.TID 0000.0001)     ;
(PID.TID 0000.0001) interDiffKr_pCell = /* account for partial-cell in interior vert. diffusion */
(PID.TID 0000.0001)                   F
(PID.TID 0000.0001)     ;
(PID.TID 0000.0001) pCellMix_select = /* option to enhance mixing near surface & bottom */
(PID.TID 0000.0001)                       0
(PID.TID 0000.0001)     ;
(PID.TID 0000.0001) selectSigmaCoord = /* Hybrid-Sigma Vert. Coordinate option */
(PID.TID 0000.0001)                       0
(PID.TID 0000.0001)     ;
(PID.TID 0000.0001) rSigmaBnd = /* r/sigma transition ( units of r ==  m ) */
(PID.TID 0000.0001)                 1.234567000000000E+05
(PID.TID 0000.0001)     ;
(PID.TID 0000.0001) rkSign =   /* index orientation relative to vertical coordinate */
(PID.TID 0000.0001)                -1.000000000000000E+00
(PID.TID 0000.0001)     ;
(PID.TID 0000.0001) gravitySign = /* gravity orientation relative to vertical coordinate */
(PID.TID 0000.0001)                -1.000000000000000E+00
(PID.TID 0000.0001)     ;
(PID.TID 0000.0001) seaLev_Z =  /* reference height of sea-level [m] */
(PID.TID 0000.0001)                 0.000000000000000E+00
(PID.TID 0000.0001)     ;
(PID.TID 0000.0001) top_Pres =  /* reference pressure at the top [Pa] */
(PID.TID 0000.0001)                 0.000000000000000E+00
(PID.TID 0000.0001)     ;
(PID.TID 0000.0001) mass2rUnit = /* convert mass per unit area [kg/m2] to r-units [m] */
(PID.TID 0000.0001)                 9.718172983479105E-04
(PID.TID 0000.0001)     ;
(PID.TID 0000.0001) rUnit2mass = /* convert r-units [m] to mass per unit area [kg/m2] */
(PID.TID 0000.0001)                 1.029000000000000E+03
(PID.TID 0000.0001)     ;
(PID.TID 0000.0001) drC =   /* C spacing ( units of r ) */
(PID.TID 0000.0001)                 5.000000000000000E+00,      /* K =  1 */
(PID.TID 0000.0001)     6 @  1.000000000000000E+01,             /* K =  2:  7 */
(PID.TID 0000.0001)                 1.000500000000000E+01,      /* K =  8 */
(PID.TID 0000.0001)                 1.002000000000000E+01,      /* K =  9 */
(PID.TID 0000.0001)                 1.007000000000000E+01,      /* K = 10 */
(PID.TID 0000.0001)                 1.021500000000000E+01,      /* K = 11 */
(PID.TID 0000.0001)                 1.056000000000000E+01,      /* K = 12 */
(PID.TID 0000.0001)                 1.128000000000000E+01,      /* K = 13 */
(PID.TID 0000.0001)                 1.259000000000000E+01,      /* K = 14 */
(PID.TID 0000.0001)                 1.473000000000000E+01,      /* K = 15 */
(PID.TID 0000.0001)                 1.793000000000000E+01,      /* K = 16 */
(PID.TID 0000.0001)                 2.233500000000000E+01,      /* K = 17 */
(PID.TID 0000.0001)                 2.797500000000000E+01,      /* K = 18 */
(PID.TID 0000.0001)                 3.476000000000001E+01,      /* K = 19 */
(PID.TID 0000.0001)                 4.246000000000000E+01,      /* K = 20 */
(PID.TID 0000.0001)                 5.075000000000000E+01,      /* K = 21 */
(PID.TID 0000.0001)                 5.925000000000000E+01,      /* K = 22 */
(PID.TID 0000.0001)                 6.753999999999999E+01,      /* K = 23 */
(PID.TID 0000.0001)                 7.524000000000001E+01,      /* K = 24 */
(PID.TID 0000.0001)                 8.202500000000001E+01,      /* K = 25 */
(PID.TID 0000.0001)                 8.766500000000001E+01,      /* K = 26 */
(PID.TID 0000.0001)                 9.206999999999999E+01,      /* K = 27 */
(PID.TID 0000.0001)                 9.527000000000000E+01,      /* K = 28 */
(PID.TID 0000.0001)                 9.741499999999999E+01,      /* K = 29 */
(PID.TID 0000.0001)                 9.875000000000000E+01,      /* K = 30 */
(PID.TID 0000.0001)                 9.963000000000000E+01,      /* K = 31 */
(PID.TID 0000.0001)                 1.006700000000000E+02,      /* K = 32 */
(PID.TID 0000.0001)                 1.029450000000000E+02,      /* K = 33 */
(PID.TID 0000.0001)                 1.079450000000000E+02,      /* K = 34 */
(PID.TID 0000.0001)                 1.170800000000000E+02,      /* K = 35 */
(PID.TID 0000.0001)                 1.309600000000000E+02,      /* K = 36 */
(PID.TID 0000.0001)                 1.490150000000000E+02,      /* K = 37 */
(PID.TID 0000.0001)                 1.698850000000000E+02,      /* K = 38 */
(PID.TID 0000.0001)                 1.921900000000000E+02,      /* K = 39 */
(PID.TID 0000.0001)                 2.150250000000000E+02,      /* K = 40 */
(PID.TID 0000.0001)                 2.380000000000000E+02,      /* K = 41 */
(PID.TID 0000.0001)                 2.610000000000000E+02,      /* K = 42 */
(PID.TID 0000.0001)                 2.840000000000000E+02,      /* K = 43 */
(PID.TID 0000.0001)                 3.070000000000000E+02,      /* K = 44 */
(PID.TID 0000.0001)                 3.300000000000000E+02,      /* K = 45 */
(PID.TID 0000.0001)                 3.530000000000000E+02,      /* K = 46 */
(PID.TID 0000.0001)                 3.760000000000000E+02,      /* K = 47 */
(PID.TID 0000.0001)                 3.990000000000000E+02,      /* K = 48 */
(PID.TID 0000.0001)                 4.220000000000000E+02,      /* K = 49 */
(PID.TID 0000.0001)                 4.450000000000000E+02,      /* K = 50 */
(PID.TID 0000.0001)                 2.282500000000000E+02       /* K = 51 */
(PID.TID 0000.0001)     ;
(PID.TID 0000.0001) drF =   /* W spacing ( units of r ) */
(PID.TID 0000.0001)     7 @  1.000000000000000E+01,             /* K =  1:  7 */
(PID.TID 0000.0001)                 1.001000000000000E+01,      /* K =  8 */
(PID.TID 0000.0001)                 1.003000000000000E+01,      /* K =  9 */
(PID.TID 0000.0001)                 1.011000000000000E+01,      /* K = 10 */
(PID.TID 0000.0001)                 1.032000000000000E+01,      /* K = 11 */
(PID.TID 0000.0001)                 1.080000000000000E+01,      /* K = 12 */
(PID.TID 0000.0001)                 1.176000000000000E+01,      /* K = 13 */
(PID.TID 0000.0001)                 1.342000000000000E+01,      /* K = 14 */
(PID.TID 0000.0001)                 1.604000000000000E+01,      /* K = 15 */
(PID.TID 0000.0001)                 1.982000000000000E+01,      /* K = 16 */
(PID.TID 0000.0001)                 2.485000000000000E+01,      /* K = 17 */
(PID.TID 0000.0001)                 3.110000000000000E+01,      /* K = 18 */
(PID.TID 0000.0001)                 3.842000000000000E+01,      /* K = 19 */
(PID.TID 0000.0001)                 4.650000000000000E+01,      /* K = 20 */
(PID.TID 0000.0001)                 5.500000000000000E+01,      /* K = 21 */
(PID.TID 0000.0001)                 6.350000000000000E+01,      /* K = 22 */
(PID.TID 0000.0001)                 7.158000000000000E+01,      /* K = 23 */
(PID.TID 0000.0001)                 7.890000000000001E+01,      /* K = 24 */
(PID.TID 0000.0001)                 8.515000000000001E+01,      /* K = 25 */
(PID.TID 0000.0001)                 9.018000000000001E+01,      /* K = 26 */
(PID.TID 0000.0001)                 9.395999999999999E+01,      /* K = 27 */
(PID.TID 0000.0001)                 9.658000000000000E+01,      /* K = 28 */
(PID.TID 0000.0001)                 9.825000000000000E+01,      /* K = 29 */
(PID.TID 0000.0001)                 9.925000000000000E+01,      /* K = 30 */
(PID.TID 0000.0001)                 1.000100000000000E+02,      /* K = 31 */
(PID.TID 0000.0001)                 1.013300000000000E+02,      /* K = 32 */
(PID.TID 0000.0001)                 1.045600000000000E+02,      /* K = 33 */
(PID.TID 0000.0001)                 1.113300000000000E+02,      /* K = 34 */
(PID.TID 0000.0001)                 1.228300000000000E+02,      /* K = 35 */
(PID.TID 0000.0001)                 1.390900000000000E+02,      /* K = 36 */
(PID.TID 0000.0001)                 1.589400000000000E+02,      /* K = 37 */
(PID.TID 0000.0001)                 1.808300000000000E+02,      /* K = 38 */
(PID.TID 0000.0001)                 2.035500000000000E+02,      /* K = 39 */
(PID.TID 0000.0001)                 2.265000000000000E+02,      /* K = 40 */
(PID.TID 0000.0001)                 2.495000000000000E+02,      /* K = 41 */
(PID.TID 0000.0001)                 2.725000000000000E+02,      /* K = 42 */
(PID.TID 0000.0001)                 2.955000000000000E+02,      /* K = 43 */
(PID.TID 0000.0001)                 3.185000000000000E+02,      /* K = 44 */
(PID.TID 0000.0001)                 3.415000000000000E+02,      /* K = 45 */
(PID.TID 0000.0001)                 3.645000000000000E+02,      /* K = 46 */
(PID.TID 0000.0001)                 3.875000000000000E+02,      /* K = 47 */
(PID.TID 0000.0001)                 4.105000000000000E+02,      /* K = 48 */
(PID.TID 0000.0001)                 4.335000000000000E+02,      /* K = 49 */
(PID.TID 0000.0001)                 4.565000000000000E+02       /* K = 50 */
(PID.TID 0000.0001)     ;
(PID.TID 0000.0001) radius_fromHorizGrid = /* sphere Radius of input horiz. grid */
(PID.TID 0000.0001)                 6.370000000000000E+06
(PID.TID 0000.0001)     ;
(PID.TID 0000.0001) rSphere =  /* Radius ( ignored - cartesian, m - spherical ) */
(PID.TID 0000.0001)                 6.370000000000000E+06
(PID.TID 0000.0001)     ;
(PID.TID 0000.0001) deepAtmosphere = /* Deep/Shallow Atmosphere flag (True/False) */
(PID.TID 0000.0001)                   F
(PID.TID 0000.0001)     ;
(PID.TID 0000.0001) xC =  /* xC(:,1,:,1) : P-point X coord ( deg. or m if cartesian) */
(PID.TID 0000.0001)                -4.081468768806280E+01,      /* I =  1 */
(PID.TID 0000.0001)                -3.957104986057077E+01,      /* I =  2 */
(PID.TID 0000.0001)                -3.832217028656162E+01,      /* I =  3 */
(PID.TID 0000.0001)      . . .
(PID.TID 0000.0001)                 1.950000000000000E+01,      /* I = 88 */
(PID.TID 0000.0001)                 2.050000000000000E+01,      /* I = 89 */
(PID.TID 0000.0001)                 2.150000000000001E+01,      /* I = 90 */
(PID.TID 0000.0001)                 2.250000000000000E+01,      /* I = 91 */
(PID.TID 0000.0001)                 2.350000000000001E+01,      /* I = 92 */
(PID.TID 0000.0001)                 2.450000000000001E+01,      /* I = 93 */
(PID.TID 0000.0001)      . . .
(PID.TID 0000.0001)                 1.950000000000000E+01,      /* I =178 */
(PID.TID 0000.0001)                 2.050000000000000E+01,      /* I =179 */
(PID.TID 0000.0001)                 2.150000000000001E+01,      /* I =180 */
(PID.TID 0000.0001)                 2.250000000000000E+01,      /* I =181 */
(PID.TID 0000.0001)                 2.350000000000000E+01,      /* I =182 */
(PID.TID 0000.0001)                 2.450000000000000E+01,      /* I =183 */
(PID.TID 0000.0001)      . . .
(PID.TID 0000.0001)                 1.950000000000000E+01,      /* I =268 */
(PID.TID 0000.0001)                 2.050000000000000E+01,      /* I =269 */
(PID.TID 0000.0001)                 2.150000000000001E+01,      /* I =270 */
(PID.TID 0000.0001)                 2.250000000000000E+01,      /* I =271 */
(PID.TID 0000.0001)                 2.350000000000000E+01,      /* I =272 */
(PID.TID 0000.0001)                 2.450000000000001E+01,      /* I =273 */
(PID.TID 0000.0001)      . . .
(PID.TID 0000.0001)                 1.950000000000000E+01,      /* I =358 */
(PID.TID 0000.0001)                 2.050000000000000E+01,      /* I =359 */
(PID.TID 0000.0001)                 2.150000000000001E+01       /* I =360 */
(PID.TID 0000.0001)     ;
(PID.TID 0000.0001) yC =  /* yC(1,:,1,:) : P-point Y coord ( deg. or m if cartesian) */
(PID.TID 0000.0001)                -8.146222940368236E+01,      /* J =  1 */
(PID.TID 0000.0001)                -8.113083815286421E+01,      /* J =  2 */
(PID.TID 0000.0001)                -8.079504828233755E+01,      /* J =  3 */
(PID.TID 0000.0001)                -8.045491317322768E+01,      /* J =  4 */
(PID.TID 0000.0001)                -8.011048280590389E+01,      /* J =  5 */
(PID.TID 0000.0001)                -7.976180430515704E+01,      /* J =  6 */
(PID.TID 0000.0001)                -7.940892240526760E+01,      /* J =  7 */
(PID.TID 0000.0001)                -7.905187984845006E+01,      /* J =  8 */
(PID.TID 0000.0001)                -7.869071772754813E+01,      /* J =  9 */
(PID.TID 0000.0001)                -7.832547578199167E+01,      /* J = 10 */
(PID.TID 0000.0001)                -7.795619265432416E+01,      /* J = 11 */
(PID.TID 0000.0001)                -7.758290611340497E+01,      /* J = 12 */
(PID.TID 0000.0001)                -7.720565324926896E+01,      /* J = 13 */
(PID.TID 0000.0001)                -7.682447064385434E+01,      /* J = 14 */
(PID.TID 0000.0001)                -7.643939452107085E+01,      /* J = 15 */
(PID.TID 0000.0001)                -7.605046087901695E+01,      /* J = 16 */
(PID.TID 0000.0001)                -7.565770560699295E+01,      /* J = 17 */
(PID.TID 0000.0001)                -7.526116458910658E+01,      /* J = 18 */
(PID.TID 0000.0001)                -7.486087379640449E+01,      /* J = 19 */
(PID.TID 0000.0001)                -7.445686936886233E+01,      /* J = 20 */
(PID.TID 0000.0001)                -7.404918768854837E+01,      /* J = 21 */
(PID.TID 0000.0001)                -7.363786544493549E+01,      /* J = 22 */
(PID.TID 0000.0001)                -7.322293969328220E+01,      /* J = 23 */
(PID.TID 0000.0001)                -7.280444790682334E+01,      /* J = 24 */
(PID.TID 0000.0001)                -7.238242802328044E+01,      /* J = 25 */
(PID.TID 0000.0001)                -7.195691848614972E+01,      /* J = 26 */
(PID.TID 0000.0001)                -7.152795828082729E+01,      /* J = 27 */
(PID.TID 0000.0001)                -7.109558696482472E+01,      /* J = 28 */
(PID.TID 0000.0001)                -7.065984468855757E+01,      /* J = 29 */
(PID.TID 0000.0001)                -7.022077218177122E+01       /* J = 30 */
(PID.TID 0000.0001)     ;
(PID.TID 0000.0001) rcoord = /* P-point R coordinate (  units of r ) */
(PID.TID 0000.0001)                -5.000000000000000E+00,      /* K =  1 */
(PID.TID 0000.0001)                -1.500000000000000E+01,      /* K =  2 */
(PID.TID 0000.0001)                -2.500000000000000E+01,      /* K =  3 */
(PID.TID 0000.0001)                -3.500000000000000E+01,      /* K =  4 */
(PID.TID 0000.0001)                -4.500000000000000E+01,      /* K =  5 */
(PID.TID 0000.0001)                -5.500000000000000E+01,      /* K =  6 */
(PID.TID 0000.0001)                -6.500000000000000E+01,      /* K =  7 */
(PID.TID 0000.0001)                -7.500500000000000E+01,      /* K =  8 */
(PID.TID 0000.0001)                -8.502499999999999E+01,      /* K =  9 */
(PID.TID 0000.0001)                -9.509500000000000E+01,      /* K = 10 */
(PID.TID 0000.0001)                -1.053100000000000E+02,      /* K = 11 */
(PID.TID 0000.0001)                -1.158700000000000E+02,      /* K = 12 */
(PID.TID 0000.0001)                -1.271500000000000E+02,      /* K = 13 */
(PID.TID 0000.0001)                -1.397400000000000E+02,      /* K = 14 */
(PID.TID 0000.0001)                -1.544700000000000E+02,      /* K = 15 */
(PID.TID 0000.0001)                -1.724000000000000E+02,      /* K = 16 */
(PID.TID 0000.0001)                -1.947350000000000E+02,      /* K = 17 */
(PID.TID 0000.0001)                -2.227100000000000E+02,      /* K = 18 */
(PID.TID 0000.0001)                -2.574700000000000E+02,      /* K = 19 */
(PID.TID 0000.0001)                -2.999300000000000E+02,      /* K = 20 */
(PID.TID 0000.0001)                -3.506800000000000E+02,      /* K = 21 */
(PID.TID 0000.0001)                -4.099300000000000E+02,      /* K = 22 */
(PID.TID 0000.0001)                -4.774700000000000E+02,      /* K = 23 */
(PID.TID 0000.0001)                -5.527100000000000E+02,      /* K = 24 */
(PID.TID 0000.0001)                -6.347350000000000E+02,      /* K = 25 */
(PID.TID 0000.0001)                -7.224000000000000E+02,      /* K = 26 */
(PID.TID 0000.0001)                -8.144700000000000E+02,      /* K = 27 */
(PID.TID 0000.0001)                -9.097400000000000E+02,      /* K = 28 */
(PID.TID 0000.0001)                -1.007155000000000E+03,      /* K = 29 */
(PID.TID 0000.0001)                -1.105905000000000E+03,      /* K = 30 */
(PID.TID 0000.0001)                -1.205535000000000E+03,      /* K = 31 */
(PID.TID 0000.0001)                -1.306205000000000E+03,      /* K = 32 */
(PID.TID 0000.0001)                -1.409150000000000E+03,      /* K = 33 */
(PID.TID 0000.0001)                -1.517095000000000E+03,      /* K = 34 */
(PID.TID 0000.0001)                -1.634175000000000E+03,      /* K = 35 */
(PID.TID 0000.0001)                -1.765135000000000E+03,      /* K = 36 */
(PID.TID 0000.0001)                -1.914150000000000E+03,      /* K = 37 */
(PID.TID 0000.0001)                -2.084035000000000E+03,      /* K = 38 */
(PID.TID 0000.0001)                -2.276225000000000E+03,      /* K = 39 */
(PID.TID 0000.0001)                -2.491250000000000E+03,      /* K = 40 */
(PID.TID 0000.0001)                -2.729250000000000E+03,      /* K = 41 */
(PID.TID 0000.0001)                -2.990250000000000E+03,      /* K = 42 */
(PID.TID 0000.0001)                -3.274250000000000E+03,      /* K = 43 */
(PID.TID 0000.0001)                -3.581250000000000E+03,      /* K = 44 */
(PID.TID 0000.0001)                -3.911250000000000E+03,      /* K = 45 */
(PID.TID 0000.0001)                -4.264250000000000E+03,      /* K = 46 */
(PID.TID 0000.0001)                -4.640250000000000E+03,      /* K = 47 */
(PID.TID 0000.0001)                -5.039250000000000E+03,      /* K = 48 */
(PID.TID 0000.0001)                -5.461250000000000E+03,      /* K = 49 */
(PID.TID 0000.0001)                -5.906250000000000E+03       /* K = 50 */
(PID.TID 0000.0001)     ;
(PID.TID 0000.0001) rF =   /* W-Interf. R coordinate (  units of r ) */
(PID.TID 0000.0001)                 0.000000000000000E+00,      /* K =  1 */
(PID.TID 0000.0001)                -1.000000000000000E+01,      /* K =  2 */
(PID.TID 0000.0001)                -2.000000000000000E+01,      /* K =  3 */
(PID.TID 0000.0001)                -3.000000000000000E+01,      /* K =  4 */
(PID.TID 0000.0001)                -4.000000000000000E+01,      /* K =  5 */
(PID.TID 0000.0001)                -5.000000000000000E+01,      /* K =  6 */
(PID.TID 0000.0001)                -6.000000000000000E+01,      /* K =  7 */
(PID.TID 0000.0001)                -7.000000000000000E+01,      /* K =  8 */
(PID.TID 0000.0001)                -8.001000000000001E+01,      /* K =  9 */
(PID.TID 0000.0001)                -9.004000000000001E+01,      /* K = 10 */
(PID.TID 0000.0001)                -1.001500000000000E+02,      /* K = 11 */
(PID.TID 0000.0001)                -1.104700000000000E+02,      /* K = 12 */
(PID.TID 0000.0001)                -1.212700000000000E+02,      /* K = 13 */
(PID.TID 0000.0001)                -1.330300000000000E+02,      /* K = 14 */
(PID.TID 0000.0001)                -1.464500000000000E+02,      /* K = 15 */
(PID.TID 0000.0001)                -1.624900000000000E+02,      /* K = 16 */
(PID.TID 0000.0001)                -1.823100000000000E+02,      /* K = 17 */
(PID.TID 0000.0001)                -2.071600000000000E+02,      /* K = 18 */
(PID.TID 0000.0001)                -2.382600000000000E+02,      /* K = 19 */
(PID.TID 0000.0001)                -2.766799999999999E+02,      /* K = 20 */
(PID.TID 0000.0001)                -3.231799999999999E+02,      /* K = 21 */
(PID.TID 0000.0001)                -3.781799999999999E+02,      /* K = 22 */
(PID.TID 0000.0001)                -4.416799999999999E+02,      /* K = 23 */
(PID.TID 0000.0001)                -5.132600000000000E+02,      /* K = 24 */
(PID.TID 0000.0001)                -5.921600000000000E+02,      /* K = 25 */
(PID.TID 0000.0001)                -6.773099999999999E+02,      /* K = 26 */
(PID.TID 0000.0001)                -7.674900000000000E+02,      /* K = 27 */
(PID.TID 0000.0001)                -8.614500000000000E+02,      /* K = 28 */
(PID.TID 0000.0001)                -9.580300000000001E+02,      /* K = 29 */
(PID.TID 0000.0001)                -1.056280000000000E+03,      /* K = 30 */
(PID.TID 0000.0001)                -1.155530000000000E+03,      /* K = 31 */
(PID.TID 0000.0001)                -1.255540000000000E+03,      /* K = 32 */
(PID.TID 0000.0001)                -1.356870000000000E+03,      /* K = 33 */
(PID.TID 0000.0001)                -1.461430000000000E+03,      /* K = 34 */
(PID.TID 0000.0001)                -1.572760000000000E+03,      /* K = 35 */
(PID.TID 0000.0001)                -1.695590000000000E+03,      /* K = 36 */
(PID.TID 0000.0001)                -1.834680000000000E+03,      /* K = 37 */
(PID.TID 0000.0001)                -1.993620000000000E+03,      /* K = 38 */
(PID.TID 0000.0001)                -2.174450000000000E+03,      /* K = 39 */
(PID.TID 0000.0001)                -2.378000000000000E+03,      /* K = 40 */
(PID.TID 0000.0001)                -2.604500000000000E+03,      /* K = 41 */
(PID.TID 0000.0001)                -2.854000000000000E+03,      /* K = 42 */
(PID.TID 0000.0001)                -3.126500000000000E+03,      /* K = 43 */
(PID.TID 0000.0001)                -3.422000000000000E+03,      /* K = 44 */
(PID.TID 0000.0001)                -3.740500000000000E+03,      /* K = 45 */
(PID.TID 0000.0001)                -4.082000000000000E+03,      /* K = 46 */
(PID.TID 0000.0001)                -4.446500000000000E+03,      /* K = 47 */
(PID.TID 0000.0001)                -4.834000000000000E+03,      /* K = 48 */
(PID.TID 0000.0001)                -5.244500000000000E+03,      /* K = 49 */
(PID.TID 0000.0001)                -5.678000000000000E+03,      /* K = 50 */
(PID.TID 0000.0001)                -6.134500000000000E+03       /* K = 51 */
(PID.TID 0000.0001)     ;
(PID.TID 0000.0001) deepFacC = /* deep-model grid factor @ cell-Center (-) */
(PID.TID 0000.0001)    50 @  1.000000000000000E+00              /* K =  1: 50 */
(PID.TID 0000.0001)     ;
(PID.TID 0000.0001) deepFacF = /* deep-model grid factor @ W-Interface (-) */
(PID.TID 0000.0001)    51 @  1.000000000000000E+00              /* K =  1: 51 */
(PID.TID 0000.0001)     ;
(PID.TID 0000.0001) rotateGrid = /* use rotated grid ( True/False ) */
(PID.TID 0000.0001)                   F
(PID.TID 0000.0001)     ;
(PID.TID 0000.0001) phiEuler = /* Euler angle, rotation about original z-coordinate [rad] */
(PID.TID 0000.0001)                 0.000000000000000E+00
(PID.TID 0000.0001)     ;
(PID.TID 0000.0001) thetaEuler = /* Euler angle, rotation about new x-coordinate [rad] */
(PID.TID 0000.0001)                 0.000000000000000E+00
(PID.TID 0000.0001)     ;
(PID.TID 0000.0001) psiEuler = /* Euler angle, rotation about new z-coordinate [rad] */
(PID.TID 0000.0001)                 0.000000000000000E+00
(PID.TID 0000.0001)     ;
(PID.TID 0000.0001) dxF =  /* dxF(:,1,:,1) ( units: m ) */
(PID.TID 0000.0001)                 2.071152825743187E+04,      /* I =  1 */
(PID.TID 0000.0001)                 2.070365142756831E+04,      /* I =  2 */
(PID.TID 0000.0001)                 2.069635296570141E+04,      /* I =  3 */
(PID.TID 0000.0001)      . . .
(PID.TID 0000.0001)                 3.834415825124955E+04,      /* I = 88 */
(PID.TID 0000.0001)                 3.834415825124925E+04,      /* I = 89 */
(PID.TID 0000.0001)                 3.834415825124930E+04,      /* I = 90 */
(PID.TID 0000.0001)                 3.834415825124911E+04,      /* I = 91 */
(PID.TID 0000.0001)                 3.834415825124960E+04,      /* I = 92 */
(PID.TID 0000.0001)                 3.834415825124898E+04,      /* I = 93 */
(PID.TID 0000.0001)      . . .
(PID.TID 0000.0001)                 6.097585119898047E+04,      /* I =178 */
(PID.TID 0000.0001)                 6.097585119898075E+04,      /* I =179 */
(PID.TID 0000.0001)                 6.097585119898035E+04,      /* I =180 */
(PID.TID 0000.0001)                 6.097585119898095E+04,      /* I =181 */
(PID.TID 0000.0001)                 6.097585119898075E+04,      /* I =182 */
(PID.TID 0000.0001)                 6.097585119898073E+04,      /* I =183 */
(PID.TID 0000.0001)      . . .
(PID.TID 0000.0001)                 8.902811056630945E+04,      /* I =268 */
(PID.TID 0000.0001)                 8.902811056630930E+04,      /* I =269 */
(PID.TID 0000.0001)                 8.902811056630829E+04,      /* I =270 */
(PID.TID 0000.0001)                 8.902811056630986E+04,      /* I =271 */
(PID.TID 0000.0001)                 8.902811056630960E+04,      /* I =272 */
(PID.TID 0000.0001)                 8.902811056630845E+04,      /* I =273 */
(PID.TID 0000.0001)      . . .
(PID.TID 0000.0001)                 1.096583732724098E+05,      /* I =358 */
(PID.TID 0000.0001)                 1.096583732724104E+05,      /* I =359 */
(PID.TID 0000.0001)                 1.096583732724097E+05       /* I =360 */
(PID.TID 0000.0001)     ;
(PID.TID 0000.0001) dxF =  /* dxF(1,:,1,:) ( units: m ) */
(PID.TID 0000.0001)                 2.071152825743187E+04,      /* J =  1 */
(PID.TID 0000.0001)                 2.109117491456033E+04,      /* J =  2 */
(PID.TID 0000.0001)                 2.148525648961724E+04,      /* J =  3 */
(PID.TID 0000.0001)                 2.189377348588603E+04,      /* J =  4 */
(PID.TID 0000.0001)                 2.231672440915243E+04,      /* J =  5 */
(PID.TID 0000.0001)                 2.275410689480659E+04,      /* J =  6 */
(PID.TID 0000.0001)                 2.320591873318126E+04,      /* J =  7 */
(PID.TID 0000.0001)                 2.367215879054831E+04,      /* J =  8 */
(PID.TID 0000.0001)                 2.415282782538908E+04,      /* J =  9 */
(PID.TID 0000.0001)                 2.464792920101809E+04,      /* J = 10 */
(PID.TID 0000.0001)                 2.515746949702995E+04,      /* J = 11 */
(PID.TID 0000.0001)                 2.568145902315334E+04,      /* J = 12 */
(PID.TID 0000.0001)                 2.621991223981432E+04,      /* J = 13 */
(PID.TID 0000.0001)                 2.677284809033052E+04,      /* J = 14 */
(PID.TID 0000.0001)                 2.734029025013979E+04,      /* J = 15 */
(PID.TID 0000.0001)                 2.792226729855568E+04,      /* J = 16 */
(PID.TID 0000.0001)                 2.851881281852892E+04,      /* J = 17 */
(PID.TID 0000.0001)                 2.912996543046302E+04,      /* J = 18 */
(PID.TID 0000.0001)                 2.975576876502299E+04,      /* J = 19 */
(PID.TID 0000.0001)                 3.039627138062681E+04,      /* J = 20 */
(PID.TID 0000.0001)                 3.105152663065675E+04,      /* J = 21 */
(PID.TID 0000.0001)                 3.172159248542454E+04,      /* J = 22 */
(PID.TID 0000.0001)                 3.240653131349731E+04,      /* J = 23 */
(PID.TID 0000.0001)                 3.310640962675057E+04,      /* J = 24 */
(PID.TID 0000.0001)                 3.382129779388320E+04,      /* J = 25 */
(PID.TID 0000.0001)                 3.455126972555294E+04,      /* J = 26 */
(PID.TID 0000.0001)                 3.529640253603521E+04,      /* J = 27 */
(PID.TID 0000.0001)                 3.605677618612848E+04,      /* J = 28 */
(PID.TID 0000.0001)                 3.683247311866502E+04,      /* J = 29 */
(PID.TID 0000.0001)                 3.762357793548112E+04       /* J = 30 */
(PID.TID 0000.0001)     ;
(PID.TID 0000.0001) dyF =  /* dyF(:,1,:,1) ( units: m ) */
(PID.TID 0000.0001)                 3.700742300337598E+04,      /* I =  1 */
(PID.TID 0000.0001)                 3.707905556394973E+04,      /* I =  2 */
(PID.TID 0000.0001)                 3.714471828319018E+04,      /* I =  3 */
(PID.TID 0000.0001)      . . .
(PID.TID 0000.0001)                 3.907240002719907E+04,      /* I = 88 */
(PID.TID 0000.0001)                 3.907240002719765E+04,      /* I = 89 */
(PID.TID 0000.0001)                 3.907240002719907E+04,      /* I = 90 */
(PID.TID 0000.0001)                 3.907240002719907E+04,      /* I = 91 */
(PID.TID 0000.0001)                 3.907240002719765E+04,      /* I = 92 */
(PID.TID 0000.0001)                 3.907240002719907E+04,      /* I = 93 */
(PID.TID 0000.0001)      . . .
(PID.TID 0000.0001)                 5.944112367643459E+04,      /* I =178 */
(PID.TID 0000.0001)                 5.944112367643387E+04,      /* I =179 */
(PID.TID 0000.0001)                 5.944112367643457E+04,      /* I =180 */
(PID.TID 0000.0001)                 5.944112367643387E+04,      /* I =181 */
(PID.TID 0000.0001)                 5.944112367643457E+04,      /* I =182 */
(PID.TID 0000.0001)                 5.944112367643386E+04,      /* I =183 */
(PID.TID 0000.0001)      . . .
(PID.TID 0000.0001)                 8.908890573232871E+04,      /* I =268 */
(PID.TID 0000.0001)                 8.908890573232732E+04,      /* I =269 */
(PID.TID 0000.0001)                 8.908890573232873E+04,      /* I =270 */
(PID.TID 0000.0001)                 8.908890573232729E+04,      /* I =271 */
(PID.TID 0000.0001)                 8.908890573232516E+04,      /* I =272 */
(PID.TID 0000.0001)                 8.908890573232729E+04,      /* I =273 */
(PID.TID 0000.0001)      . . .
(PID.TID 0000.0001)                 1.080860813398986E+05,      /* I =358 */
(PID.TID 0000.0001)                 1.080860813398988E+05,      /* I =359 */
(PID.TID 0000.0001)                 1.080860813398986E+05       /* I =360 */
(PID.TID 0000.0001)     ;
(PID.TID 0000.0001) dyF =  /* dyF(1,:,1,:) ( units: m ) */
(PID.TID 0000.0001)                 3.700742300337598E+04,      /* J =  1 */
(PID.TID 0000.0001)                 3.745555642044499E+04,      /* J =  2 */
(PID.TID 0000.0001)                 3.790206217653974E+04,      /* J =  3 */
(PID.TID 0000.0001)                 3.834684105117956E+04,      /* J =  4 */
(PID.TID 0000.0001)                 3.878979459357282E+04,      /* J =  5 */
(PID.TID 0000.0001)                 3.923082521328924E+04,      /* J =  6 */
(PID.TID 0000.0001)                 3.966983623246408E+04,      /* J =  7 */
(PID.TID 0000.0001)                 4.010673190475840E+04,      /* J =  8 */
(PID.TID 0000.0001)                 4.054141740950450E+04,      /* J =  9 */
(PID.TID 0000.0001)                 4.097379882434454E+04,      /* J = 10 */
(PID.TID 0000.0001)                 4.140378308084428E+04,      /* J = 11 */
(PID.TID 0000.0001)                 4.183127790875583E+04,      /* J = 12 */
(PID.TID 0000.0001)                 4.225619177206317E+04,      /* J = 13 */
(PID.TID 0000.0001)                 4.267843379867976E+04,      /* J = 14 */
(PID.TID 0000.0001)                 4.309791371221616E+04,      /* J = 15 */
(PID.TID 0000.0001)                 4.351454176087940E+04,      /* J = 16 */
(PID.TID 0000.0001)                 4.392822864881465E+04,      /* J = 17 */
(PID.TID 0000.0001)                 4.433888547805120E+04,      /* J = 18 */
(PID.TID 0000.0001)                 4.474642369096899E+04,      /* J = 19 */
(PID.TID 0000.0001)                 4.515075502217317E+04,      /* J = 20 */
(PID.TID 0000.0001)                 4.555179145554101E+04,      /* J = 21 */
(PID.TID 0000.0001)                 4.594944520275577E+04,      /* J = 22 */
(PID.TID 0000.0001)                 4.634362867401398E+04,      /* J = 23 */
(PID.TID 0000.0001)                 4.673425447947427E+04,      /* J = 24 */
(PID.TID 0000.0001)                 4.712123544873745E+04,      /* J = 25 */
(PID.TID 0000.0001)                 4.750448467975499E+04,      /* J = 26 */
(PID.TID 0000.0001)                 4.788391567392174E+04,      /* J = 27 */
(PID.TID 0000.0001)                 4.825944271092693E+04,      /* J = 28 */
(PID.TID 0000.0001)                 4.863098220111143E+04,      /* J = 29 */
(PID.TID 0000.0001)                 4.899845499569884E+04       /* J = 30 */
(PID.TID 0000.0001)     ;
(PID.TID 0000.0001) dxG =  /* dxG(:,1,:,1) ( units: m ) */
(PID.TID 0000.0001)                 2.052711702021451E+04,      /* I =  1 */
(PID.TID 0000.0001)                 2.051953983526162E+04,      /* I =  2 */
(PID.TID 0000.0001)                 2.051251425926268E+04,      /* I =  3 */
(PID.TID 0000.0001)      . . .
(PID.TID 0000.0001)                 3.802493532420797E+04,      /* I = 88 */
(PID.TID 0000.0001)                 3.802493532420756E+04,      /* I = 89 */
(PID.TID 0000.0001)                 3.802493532420718E+04,      /* I = 90 */
(PID.TID 0000.0001)                 3.802493532420749E+04,      /* I = 91 */
(PID.TID 0000.0001)                 3.802493532420810E+04,      /* I = 92 */
(PID.TID 0000.0001)                 3.802493532420712E+04,      /* I = 93 */
(PID.TID 0000.0001)      . . .
(PID.TID 0000.0001)                 6.054232243597854E+04,      /* I =178 */
(PID.TID 0000.0001)                 6.054232243597873E+04,      /* I =179 */
(PID.TID 0000.0001)                 6.054232243597812E+04,      /* I =180 */
(PID.TID 0000.0001)                 6.054232243597840E+04,      /* I =181 */
(PID.TID 0000.0001)                 6.054232243597918E+04,      /* I =182 */
(PID.TID 0000.0001)                 6.054232243597802E+04,      /* I =183 */
(PID.TID 0000.0001)      . . .
(PID.TID 0000.0001)                 8.856156306761492E+04,      /* I =268 */
(PID.TID 0000.0001)                 8.856156306761476E+04,      /* I =269 */
(PID.TID 0000.0001)                 8.856156306761419E+04,      /* I =270 */
(PID.TID 0000.0001)                 8.856156306761489E+04,      /* I =271 */
(PID.TID 0000.0001)                 8.856156306761576E+04,      /* I =272 */
(PID.TID 0000.0001)                 8.856156306761407E+04,      /* I =273 */
(PID.TID 0000.0001)      . . .
(PID.TID 0000.0001)                 1.094986218245334E+05,      /* I =358 */
(PID.TID 0000.0001)                 1.094986218245327E+05,      /* I =359 */
(PID.TID 0000.0001)                 1.094986218245328E+05       /* I =360 */
(PID.TID 0000.0001)     ;
(PID.TID 0000.0001) dxG =  /* dxG(1,:,1,:) ( units: m ) */
(PID.TID 0000.0001)                 2.052711702021451E+04,      /* J =  1 */
(PID.TID 0000.0001)                 2.089954736357391E+04,      /* J =  2 */
(PID.TID 0000.0001)                 2.128641124518697E+04,      /* J =  3 */
(PID.TID 0000.0001)                 2.168771062037700E+04,      /* J =  4 */
(PID.TID 0000.0001)                 2.210344484655194E+04,      /* J =  5 */
(PID.TID 0000.0001)                 2.253361185972884E+04,      /* J =  6 */
(PID.TID 0000.0001)                 2.297820925105574E+04,      /* J =  7 */
(PID.TID 0000.0001)                 2.343723524028478E+04,      /* J =  8 */
(PID.TID 0000.0001)                 2.391068954427550E+04,      /* J =  9 */
(PID.TID 0000.0001)                 2.439857414125275E+04,      /* J = 10 */
(PID.TID 0000.0001)                 2.490089393241153E+04,      /* J = 11 */
(PID.TID 0000.0001)                 2.541765730414359E+04,      /* J = 12 */
(PID.TID 0000.0001)                 2.594887659459613E+04,      /* J = 13 */
(PID.TID 0000.0001)                 2.649456846940333E+04,      /* J = 14 */
(PID.TID 0000.0001)                 2.705475421181358E+04,      /* J = 15 */
(PID.TID 0000.0001)                 2.762945993231310E+04,      /* J = 16 */
(PID.TID 0000.0001)                 2.821871670385097E+04,      /* J = 17 */
(PID.TID 0000.0001)                 2.882256062780631E+04,      /* J = 18 */
(PID.TID 0000.0001)                 2.944103283669238E+04,      /* J = 19 */
(PID.TID 0000.0001)                 3.007417943861200E+04,      /* J = 20 */
(PID.TID 0000.0001)                 3.072205140902393E+04,      /* J = 21 */
(PID.TID 0000.0001)                 3.138470443467240E+04,      /* J = 22 */
(PID.TID 0000.0001)                 3.206219871470027E+04,      /* J = 23 */
(PID.TID 0000.0001)                 3.275459872326910E+04,      /* J = 24 */
(PID.TID 0000.0001)                 3.346197293831744E+04,      /* J = 25 */
(PID.TID 0000.0001)                 3.418439354048331E+04,      /* J = 26 */
(PID.TID 0000.0001)                 3.492193608585089E+04,      /* J = 27 */
(PID.TID 0000.0001)                 3.567467915738818E+04,      /* J = 28 */
(PID.TID 0000.0001)                 3.644270400216877E+04,      /* J = 29 */
(PID.TID 0000.0001)                 3.722609417427087E+04       /* J = 30 */
(PID.TID 0000.0001)     ;
(PID.TID 0000.0001) dyG =  /* dyG(:,1,:,1) ( units: m ) */
(PID.TID 0000.0001)                 3.696936823759973E+04,      /* I =  1 */
(PID.TID 0000.0001)                 3.704398547852144E+04,      /* I =  2 */
(PID.TID 0000.0001)                 3.711263318385338E+04,      /* I =  3 */
(PID.TID 0000.0001)      . . .
(PID.TID 0000.0001)                 3.907240002719624E+04,      /* I = 88 */
(PID.TID 0000.0001)                 3.907240002719908E+04,      /* I = 89 */
(PID.TID 0000.0001)                 3.907240002719766E+04,      /* I = 90 */
(PID.TID 0000.0001)                 3.907240002719624E+04,      /* I = 91 */
(PID.TID 0000.0001)                 3.907240002719624E+04,      /* I = 92 */
(PID.TID 0000.0001)                 3.907240002719907E+04,      /* I = 93 */
(PID.TID 0000.0001)      . . .
(PID.TID 0000.0001)                 5.944112367643598E+04,      /* I =178 */
(PID.TID 0000.0001)                 5.944112367643457E+04,      /* I =179 */
(PID.TID 0000.0001)                 5.944112367643457E+04,      /* I =180 */
(PID.TID 0000.0001)                 5.944112367643387E+04,      /* I =181 */
(PID.TID 0000.0001)                 5.944112367643457E+04,      /* I =182 */
(PID.TID 0000.0001)                 5.944112367643458E+04,      /* I =183 */
(PID.TID 0000.0001)      . . .
(PID.TID 0000.0001)                 8.908890573232729E+04,      /* I =268 */
(PID.TID 0000.0001)                 8.908890573232729E+04,      /* I =269 */
(PID.TID 0000.0001)                 8.908890573232729E+04,      /* I =270 */
(PID.TID 0000.0001)                 8.908890573232871E+04,      /* I =271 */
(PID.TID 0000.0001)                 8.908890573232868E+04,      /* I =272 */
(PID.TID 0000.0001)                 8.908890573232729E+04,      /* I =273 */
(PID.TID 0000.0001)      . . .
(PID.TID 0000.0001)                 1.080860813398988E+05,      /* I =358 */
(PID.TID 0000.0001)                 1.080860813398988E+05,      /* I =359 */
(PID.TID 0000.0001)                 1.080860813398988E+05       /* I =360 */
(PID.TID 0000.0001)     ;
(PID.TID 0000.0001) dyG =  /* dyG(1,:,1,:) ( units: m ) */
(PID.TID 0000.0001)                 3.696936823759973E+04,      /* J =  1 */
(PID.TID 0000.0001)                 3.741746190559281E+04,      /* J =  2 */
(PID.TID 0000.0001)                 3.786390067184393E+04,      /* J =  3 */
(PID.TID 0000.0001)                 3.830858172733455E+04,      /* J =  4 */
(PID.TID 0000.0001)                 3.875140319955796E+04,      /* J =  5 */
(PID.TID 0000.0001)                 3.919226424948571E+04,      /* J =  6 */
(PID.TID 0000.0001)                 3.963106512715793E+04,      /* J =  7 */
(PID.TID 0000.0001)                 4.006770719102380E+04,      /* J =  8 */
(PID.TID 0000.0001)                 4.050209290047463E+04,      /* J =  9 */
(PID.TID 0000.0001)                 4.093412578484027E+04,      /* J = 10 */
(PID.TID 0000.0001)                 4.136371039407872E+04,      /* J = 11 */
(PID.TID 0000.0001)                 4.179075223673176E+04,      /* J = 12 */
(PID.TID 0000.0001)                 4.221515770920290E+04,      /* J = 13 */
(PID.TID 0000.0001)                 4.263683401805614E+04,      /* J = 14 */
(PID.TID 0000.0001)                 4.305568910412182E+04,      /* J = 15 */
(PID.TID 0000.0001)                 4.347163156363047E+04,      /* J = 16 */
(PID.TID 0000.0001)                 4.388457057225752E+04,      /* J = 17 */
(PID.TID 0000.0001)                 4.429441581934092E+04,      /* J = 18 */
(PID.TID 0000.0001)                 4.470107744374240E+04,      /* J = 19 */
(PID.TID 0000.0001)                 4.510446597891348E+04,      /* J = 20 */
(PID.TID 0000.0001)                 4.550449230395439E+04,      /* J = 21 */
(PID.TID 0000.0001)                 4.590106761654920E+04,      /* J = 22 */
(PID.TID 0000.0001)                 4.629410339849156E+04,      /* J = 23 */
(PID.TID 0000.0001)                 4.668351141269982E+04,      /* J = 24 */
(PID.TID 0000.0001)                 4.706920371856177E+04,      /* J = 25 */
(PID.TID 0000.0001)                 4.745109271730031E+04,      /* J = 26 */
(PID.TID 0000.0001)                 4.782909128417812E+04,      /* J = 27 */
(PID.TID 0000.0001)                 4.820311314005602E+04,      /* J = 28 */
(PID.TID 0000.0001)                 4.857307420014453E+04,      /* J = 29 */
(PID.TID 0000.0001)                 4.893889490827491E+04       /* J = 30 */
(PID.TID 0000.0001)     ;
(PID.TID 0000.0001) dxC =  /* dxC(:,1,:,1) ( units: m ) */
(PID.TID 0000.0001)                 2.071567651695695E+04,      /* I =  1 */
(PID.TID 0000.0001)                 2.070751892245589E+04,      /* I =  2 */
(PID.TID 0000.0001)                 2.069992855779408E+04,      /* I =  3 */
(PID.TID 0000.0001)      . . .
(PID.TID 0000.0001)                 3.834415825124906E+04,      /* I = 88 */
(PID.TID 0000.0001)                 3.834415825124936E+04,      /* I = 89 */
(PID.TID 0000.0001)                 3.834415825124942E+04,      /* I = 90 */
(PID.TID 0000.0001)                 3.834415825124911E+04,      /* I = 91 */
(PID.TID 0000.0001)                 3.834415825124960E+04,      /* I = 92 */
(PID.TID 0000.0001)                 3.834415825124936E+04,      /* I = 93 */
(PID.TID 0000.0001)      . . .
(PID.TID 0000.0001)                 6.097585119898054E+04,      /* I =178 */
(PID.TID 0000.0001)                 6.097585119898066E+04,      /* I =179 */
(PID.TID 0000.0001)                 6.097585119898095E+04,      /* I =180 */
(PID.TID 0000.0001)                 6.097585119898035E+04,      /* I =181 */
(PID.TID 0000.0001)                 6.097585119898076E+04,      /* I =182 */
(PID.TID 0000.0001)                 6.097585119898054E+04,      /* I =183 */
(PID.TID 0000.0001)      . . .
(PID.TID 0000.0001)                 8.902811056630903E+04,      /* I =268 */
(PID.TID 0000.0001)                 8.902811056630914E+04,      /* I =269 */
(PID.TID 0000.0001)                 8.902811056630960E+04,      /* I =270 */
(PID.TID 0000.0001)                 8.902811056630872E+04,      /* I =271 */
(PID.TID 0000.0001)                 8.902811056630930E+04,      /* I =272 */
(PID.TID 0000.0001)                 8.902811056630987E+04,      /* I =273 */
(PID.TID 0000.0001)      . . .
(PID.TID 0000.0001)                 1.096583732724100E+05,      /* I =358 */
(PID.TID 0000.0001)                 1.096583732724102E+05,      /* I =359 */
(PID.TID 0000.0001)                 1.096583732724104E+05       /* I =360 */
(PID.TID 0000.0001)     ;
(PID.TID 0000.0001) dxC =  /* dxC(1,:,1,:) ( units: m ) */
(PID.TID 0000.0001)                 2.071567651695695E+04,      /* J =  1 */
(PID.TID 0000.0001)                 2.109563672137949E+04,      /* J =  2 */
(PID.TID 0000.0001)                 2.149002149497106E+04,      /* J =  3 */
(PID.TID 0000.0001)                 2.189882927482529E+04,      /* J =  4 */
(PID.TID 0000.0001)                 2.232205646389843E+04,      /* J =  5 */
(PID.TID 0000.0001)                 2.275969855854128E+04,      /* J =  6 */
(PID.TID 0000.0001)                 2.321175117362029E+04,      /* J =  7 */
(PID.TID 0000.0001)                 2.367821096276529E+04,      /* J =  8 */
(PID.TID 0000.0001)                 2.415907643347346E+04,      /* J =  9 */
(PID.TID 0000.0001)                 2.465434865814045E+04,      /* J = 10 */
(PID.TID 0000.0001)                 2.516403188365780E+04,      /* J = 11 */
(PID.TID 0000.0001)                 2.568813404310613E+04,      /* J = 12 */
(PID.TID 0000.0001)                 2.622666717399572E+04,      /* J = 13 */
(PID.TID 0000.0001)                 2.677964774799169E+04,      /* J = 14 */
(PID.TID 0000.0001)                 2.734709691757753E+04,      /* J = 15 */
(PID.TID 0000.0001)                 2.792904068517491E+04,      /* J = 16 */
(PID.TID 0000.0001)                 2.852551000032625E+04,      /* J = 17 */
(PID.TID 0000.0001)                 2.913654079081990E+04,      /* J = 18 */
(PID.TID 0000.0001)                 2.976217393306023E+04,      /* J = 19 */
(PID.TID 0000.0001)                 3.040245516699173E+04,      /* J = 20 */
(PID.TID 0000.0001)                 3.105743496108396E+04,      /* J = 21 */
(PID.TID 0000.0001)                 3.172716833208323E+04,      /* J = 22 */
(PID.TID 0000.0001)                 3.241171462422546E+04,      /* J = 23 */
(PID.TID 0000.0001)                 3.311113725244482E+04,      /* J = 24 */
(PID.TID 0000.0001)                 3.382550341391024E+04,      /* J = 25 */
(PID.TID 0000.0001)                 3.455488377140061E+04,      /* J = 26 */
(PID.TID 0000.0001)                 3.529935211332738E+04,      /* J = 27 */
(PID.TID 0000.0001)                 3.605898499520765E+04,      /* J = 28 */
(PID.TID 0000.0001)                 3.683386137397906E+04,      /* J = 29 */
(PID.TID 0000.0001)                 3.762406228407349E+04       /* J = 30 */
(PID.TID 0000.0001)     ;
(PID.TID 0000.0001) dyC =  /* dyC(:,1,:,1) ( units: m ) */
(PID.TID 0000.0001)                 3.678277710845771E+04,      /* I =  1 */
(PID.TID 0000.0001)                 3.685438685866048E+04,      /* I =  2 */
(PID.TID 0000.0001)                 3.692002588020908E+04,      /* I =  3 */
(PID.TID 0000.0001)      . . .
(PID.TID 0000.0001)                 4.016744984934984E+04,      /* I = 88 */
(PID.TID 0000.0001)                 4.000120354100877E+04,      /* I = 89 */
(PID.TID 0000.0001)                 3.983368408285045E+04,      /* I = 90 */
(PID.TID 0000.0001)                 3.966506634613617E+04,      /* I = 91 */
(PID.TID 0000.0001)                 3.949553059923408E+04,      /* I = 92 */
(PID.TID 0000.0001)                 3.932526257313867E+04,      /* I = 93 */
(PID.TID 0000.0001)      . . .
(PID.TID 0000.0001)                 5.920166007657812E+04,      /* I =178 */
(PID.TID 0000.0001)                 5.920166007657599E+04,      /* I =179 */
(PID.TID 0000.0001)                 5.920166007657529E+04,      /* I =180 */
(PID.TID 0000.0001)                 5.920166007657599E+04,      /* I =181 */
(PID.TID 0000.0001)                 5.920166007657599E+04,      /* I =182 */
(PID.TID 0000.0001)                 5.920166007657458E+04,      /* I =183 */
(PID.TID 0000.0001)      . . .
(PID.TID 0000.0001)                 8.859884432753419E+04,      /* I =268 */
(PID.TID 0000.0001)                 8.859884432753560E+04,      /* I =269 */
(PID.TID 0000.0001)                 8.859884432753420E+04,      /* I =270 */
(PID.TID 0000.0001)                 8.859884432753558E+04,      /* I =271 */
(PID.TID 0000.0001)                 8.859884432753560E+04,      /* I =272 */
(PID.TID 0000.0001)                 8.859884432753417E+04,      /* I =273 */
(PID.TID 0000.0001)      . . .
(PID.TID 0000.0001)                 1.085363275016688E+05,      /* I =358 */
(PID.TID 0000.0001)                 1.085363275016689E+05,      /* I =359 */
(PID.TID 0000.0001)                 1.085363275016690E+05       /* I =360 */
(PID.TID 0000.0001)     ;
(PID.TID 0000.0001) dyC =  /* dyC(1,:,1,:) ( units: m ) */
(PID.TID 0000.0001)                 3.678277710845771E+04,      /* J =  1 */
(PID.TID 0000.0001)                 3.723168694115569E+04,      /* J =  2 */
(PID.TID 0000.0001)                 3.767901897410101E+04,      /* J =  3 */
(PID.TID 0000.0001)                 3.812467364657602E+04,      /* J =  4 */
(PID.TID 0000.0001)                 3.856855210935249E+04,      /* J =  5 */
(PID.TID 0000.0001)                 3.901055633269680E+04,      /* J =  6 */
(PID.TID 0000.0001)                 3.945058917911859E+04,      /* J =  7 */
(PID.TID 0000.0001)                 3.988855443472220E+04,      /* J =  8 */
(PID.TID 0000.0001)                 4.032435681898361E+04,      /* J =  9 */
(PID.TID 0000.0001)                 4.075790196435841E+04,      /* J = 10 */
(PID.TID 0000.0001)                 4.118909638222960E+04,      /* J = 11 */
(PID.TID 0000.0001)                 4.161784741043697E+04,      /* J = 12 */
(PID.TID 0000.0001)                 4.204406315499045E+04,      /* J = 13 */
(PID.TID 0000.0001)                 4.246765242091182E+04,      /* J = 14 */
(PID.TID 0000.0001)                 4.288852464034393E+04,      /* J = 15 */
(PID.TID 0000.0001)                 4.330658981118225E+04,      /* J = 16 */
(PID.TID 0000.0001)                 4.372175841431943E+04,      /* J = 17 */
(PID.TID 0000.0001)                 4.413394136293020E+04,      /* J = 18 */
(PID.TID 0000.0001)                 4.454304993440304E+04,      /* J = 19 */
(PID.TID 0000.0001)                 4.494899572325061E+04,      /* J = 20 */
(PID.TID 0000.0001)                 4.535169059286820E+04,      /* J = 21 */
(PID.TID 0000.0001)                 4.575104664412256E+04,      /* J = 22 */
(PID.TID 0000.0001)                 4.614697618947234E+04,      /* J = 23 */
(PID.TID 0000.0001)                 4.653939173844085E+04,      /* J = 24 */
(PID.TID 0000.0001)                 4.692820600744408E+04,      /* J = 25 */
(PID.TID 0000.0001)                 4.731333194957835E+04,      /* J = 26 */
(PID.TID 0000.0001)                 4.769468283927006E+04,      /* J = 27 */
(PID.TID 0000.0001)                 4.807217249390641E+04,      /* J = 28 */
(PID.TID 0000.0001)                 4.844571593362943E+04,      /* J = 29 */
(PID.TID 0000.0001)                 4.881523285497380E+04       /* J = 30 */
(PID.TID 0000.0001)     ;
(PID.TID 0000.0001) dxV =  /* dxV(:,1,:,1) ( units: m ) */
(PID.TID 0000.0001)                 2.053110526075532E+04,      /* I =  1 */
(PID.TID 0000.0001)                 2.052326088418283E+04,      /* I =  2 */
(PID.TID 0000.0001)                 2.051595672244828E+04,      /* I =  3 */
(PID.TID 0000.0001)      . . .
(PID.TID 0000.0001)                 3.802493532420766E+04,      /* I = 88 */
(PID.TID 0000.0001)                 3.802493532420760E+04,      /* I = 89 */
(PID.TID 0000.0001)                 3.802493532420767E+04,      /* I = 90 */
(PID.TID 0000.0001)                 3.802493532420724E+04,      /* I = 91 */
(PID.TID 0000.0001)                 3.802493532420773E+04,      /* I = 92 */
(PID.TID 0000.0001)                 3.802493532420784E+04,      /* I = 93 */
(PID.TID 0000.0001)      . . .
(PID.TID 0000.0001)                 6.054232243597854E+04,      /* I =178 */
(PID.TID 0000.0001)                 6.054232243597854E+04,      /* I =179 */
(PID.TID 0000.0001)                 6.054232243597881E+04,      /* I =180 */
(PID.TID 0000.0001)                 6.054232243597820E+04,      /* I =181 */
(PID.TID 0000.0001)                 6.054232243597860E+04,      /* I =182 */
(PID.TID 0000.0001)                 6.054232243597822E+04,      /* I =183 */
(PID.TID 0000.0001)      . . .
(PID.TID 0000.0001)                 8.856156306761477E+04,      /* I =268 */
(PID.TID 0000.0001)                 8.856156306761492E+04,      /* I =269 */
(PID.TID 0000.0001)                 8.856156306761476E+04,      /* I =270 */
(PID.TID 0000.0001)                 8.856156306761461E+04,      /* I =271 */
(PID.TID 0000.0001)                 8.856156306761492E+04,      /* I =272 */
(PID.TID 0000.0001)                 8.856156306761462E+04,      /* I =273 */
(PID.TID 0000.0001)      . . .
(PID.TID 0000.0001)                 1.094986218245334E+05,      /* I =358 */
(PID.TID 0000.0001)                 1.094986218245330E+05,      /* I =359 */
(PID.TID 0000.0001)                 1.094986218245336E+05       /* I =360 */
(PID.TID 0000.0001)     ;
(PID.TID 0000.0001) dxV =  /* dxV(1,:,1,:) ( units: m ) */
(PID.TID 0000.0001)                 2.053110526075532E+04,      /* J =  1 */
(PID.TID 0000.0001)                 2.090385356266093E+04,      /* J =  2 */
(PID.TID 0000.0001)                 2.129102607314009E+04,      /* J =  3 */
(PID.TID 0000.0001)                 2.169262269996662E+04,      /* J =  4 */
(PID.TID 0000.0001)                 2.210864071595607E+04,      /* J =  5 */
(PID.TID 0000.0001)                 2.253907593617405E+04,      /* J =  6 */
(PID.TID 0000.0001)                 2.298392379458377E+04,      /* J =  7 */
(PID.TID 0000.0001)                 2.344318031700113E+04,      /* J =  8 */
(PID.TID 0000.0001)                 2.391684298864163E+04,      /* J =  9 */
(PID.TID 0000.0001)                 2.440491151699962E+04,      /* J = 10 */
(PID.TID 0000.0001)                 2.490738849171163E+04,      /* J = 11 */
(PID.TID 0000.0001)                 2.542427994477456E+04,      /* J = 12 */
(PID.TID 0000.0001)                 2.595559581485789E+04,      /* J = 13 */
(PID.TID 0000.0001)                 2.650135032062733E+04,      /* J = 14 */
(PID.TID 0000.0001)                 2.706156224833991E+04,      /* J = 15 */
(PID.TID 0000.0001)                 2.763625515890197E+04,      /* J = 16 */
(PID.TID 0000.0001)                 2.822545752042790E+04,      /* J = 17 */
(PID.TID 0000.0001)                 2.882920277162976E+04,      /* J = 18 */
(PID.TID 0000.0001)                 2.944752932187136E+04,      /* J = 19 */
(PID.TID 0000.0001)                 3.008048049319959E+04,      /* J = 20 */
(PID.TID 0000.0001)                 3.072810440966728E+04,      /* J = 21 */
(PID.TID 0000.0001)                 3.139045383903842E+04,      /* J = 22 */
(PID.TID 0000.0001)                 3.206758599174654E+04,      /* J = 23 */
(PID.TID 0000.0001)                 3.275956228156967E+04,      /* J = 24 */
(PID.TID 0000.0001)                 3.346644805244220E+04,      /* J = 25 */
(PID.TID 0000.0001)                 3.418831227550044E+04,      /* J = 26 */
(PID.TID 0000.0001)                 3.492522722017510E+04,      /* J = 27 */
(PID.TID 0000.0001)                 3.567726810399632E+04,      /* J = 28 */
(PID.TID 0000.0001)                 3.644451272859776E+04,      /* J = 29 */
(PID.TID 0000.0001)                 3.722704112152557E+04       /* J = 30 */
(PID.TID 0000.0001)     ;
(PID.TID 0000.0001) dyU =  /* dyU(:,1,:,1) ( units: m ) */
(PID.TID 0000.0001)                 3.674473316658630E+04,      /* I =  1 */
(PID.TID 0000.0001)                 3.681932833792822E+04,      /* I =  2 */
(PID.TID 0000.0001)                 3.688795269313092E+04,      /* I =  3 */
(PID.TID 0000.0001)      . . .
(PID.TID 0000.0001)                 4.025004238297205E+04,      /* I = 88 */
(PID.TID 0000.0001)                 4.008449655936272E+04,      /* I = 89 */
(PID.TID 0000.0001)                 3.991759215174560E+04,      /* I = 90 */
(PID.TID 0000.0001)                 3.974950135983057E+04,      /* I = 91 */
(PID.TID 0000.0001)                 3.958040174458963E+04,      /* I = 92 */
(PID.TID 0000.0001)                 3.941047629793049E+04,      /* I = 93 */
(PID.TID 0000.0001)      . . .
(PID.TID 0000.0001)                 5.920166007657739E+04,      /* I =178 */
(PID.TID 0000.0001)                 5.920166007657599E+04,      /* I =179 */
(PID.TID 0000.0001)                 5.920166007657599E+04,      /* I =180 */
(PID.TID 0000.0001)                 5.920166007657739E+04,      /* I =181 */
(PID.TID 0000.0001)                 5.920166007657528E+04,      /* I =182 */
(PID.TID 0000.0001)                 5.920166007657741E+04,      /* I =183 */
(PID.TID 0000.0001)      . . .
(PID.TID 0000.0001)                 8.859884432753420E+04,      /* I =268 */
(PID.TID 0000.0001)                 8.859884432753419E+04,      /* I =269 */
(PID.TID 0000.0001)                 8.859884432753417E+04,      /* I =270 */
(PID.TID 0000.0001)                 8.859884432753560E+04,      /* I =271 */
(PID.TID 0000.0001)                 8.859884432753417E+04,      /* I =272 */
(PID.TID 0000.0001)                 8.859884432753420E+04,      /* I =273 */
(PID.TID 0000.0001)      . . .
(PID.TID 0000.0001)                 1.085363275016690E+05,      /* I =358 */
(PID.TID 0000.0001)                 1.085363275016690E+05,      /* I =359 */
(PID.TID 0000.0001)                 1.085363275016690E+05       /* I =360 */
(PID.TID 0000.0001)     ;
(PID.TID 0000.0001) dyU =  /* dyU(1,:,1,:) ( units: m ) */
(PID.TID 0000.0001)                 3.674473316658630E+04,      /* J =  1 */
(PID.TID 0000.0001)                 3.719361547538896E+04,      /* J =  2 */
(PID.TID 0000.0001)                 3.764089459751266E+04,      /* J =  3 */
(PID.TID 0000.0001)                 3.808646730382765E+04,      /* J =  4 */
(PID.TID 0000.0001)                 3.853023123895088E+04,      /* J =  5 */
(PID.TID 0000.0001)                 3.897208503739593E+04,      /* J =  6 */
(PID.TID 0000.0001)                 3.941192840112046E+04,      /* J =  7 */
(PID.TID 0000.0001)                 3.984966213263487E+04,      /* J =  8 */
(PID.TID 0000.0001)                 4.028518814419441E+04,      /* J =  9 */
(PID.TID 0000.0001)                 4.071840943468107E+04,      /* J = 10 */
(PID.TID 0000.0001)                 4.114923005120406E+04,      /* J = 11 */
(PID.TID 0000.0001)                 4.157755503103340E+04,      /* J = 12 */
(PID.TID 0000.0001)                 4.200329033666767E+04,      /* J = 13 */
(PID.TID 0000.0001)                 4.242634277960793E+04,      /* J = 14 */
(PID.TID 0000.0001)                 4.284661994092684E+04,      /* J = 15 */
(PID.TID 0000.0001)                 4.326403010205203E+04,      /* J = 16 */
(PID.TID 0000.0001)                 4.367848215462093E+04,      /* J = 17 */
(PID.TID 0000.0001)                 4.408988554208750E+04,      /* J = 18 */
(PID.TID 0000.0001)                 4.449815018464295E+04,      /* J = 19 */
(PID.TID 0000.0001)                 4.490318642518511E+04,      /* J = 20 */
(PID.TID 0000.0001)                 4.530490497491705E+04,      /* J = 21 */
(PID.TID 0000.0001)                 4.570321687598708E+04,      /* J = 22 */
(PID.TID 0000.0001)                 4.609803347024994E+04,      /* J = 23 */
(PID.TID 0000.0001)                 4.648926637992392E+04,      /* J = 24 */
(PID.TID 0000.0001)                 4.687682751321772E+04,      /* J = 25 */
(PID.TID 0000.0001)                 4.726062909013533E+04,      /* J = 26 */
(PID.TID 0000.0001)                 4.764058372401170E+04,      /* J = 27 */
(PID.TID 0000.0001)                 4.801660464021451E+04,      /* J = 28 */
(PID.TID 0000.0001)                 4.838860633247659E+04,      /* J = 29 */
(PID.TID 0000.0001)                 4.875650803021456E+04       /* J = 30 */
(PID.TID 0000.0001)     ;
(PID.TID 0000.0001) rA  =  /* rA (:,1,:,1) ( units: m^2 ) */
(PID.TID 0000.0001)                 7.665113621396177E+08,      /* I =  1 */
(PID.TID 0000.0001)                 7.677029697239892E+08,      /* I =  2 */
(PID.TID 0000.0001)                 7.687913877455838E+08,      /* I =  3 */
(PID.TID 0000.0001)      . . .
(PID.TID 0000.0001)                 1.498235319581657E+09,      /* I = 88 */
(PID.TID 0000.0001)                 1.498235325942633E+09,      /* I = 89 */
(PID.TID 0000.0001)                 1.498235320635813E+09,      /* I = 90 */
(PID.TID 0000.0001)                 1.498235322789175E+09,      /* I = 91 */
(PID.TID 0000.0001)                 1.498235319401459E+09,      /* I = 92 */
(PID.TID 0000.0001)                 1.498235319653736E+09,      /* I = 93 */
(PID.TID 0000.0001)      . . .
(PID.TID 0000.0001)                 3.624512078340713E+09,      /* I =178 */
(PID.TID 0000.0001)                 3.624512077764081E+09,      /* I =179 */
(PID.TID 0000.0001)                 3.624512075574679E+09,      /* I =180 */
(PID.TID 0000.0001)                 3.624512080052590E+09,      /* I =181 */
(PID.TID 0000.0001)                 3.624512078737147E+09,      /* I =182 */
(PID.TID 0000.0001)                 3.624512079268730E+09,      /* I =183 */
(PID.TID 0000.0001)      . . .
(PID.TID 0000.0001)                 7.931466237949184E+09,      /* I =268 */
(PID.TID 0000.0001)                 7.931466236804928E+09,      /* I =269 */
(PID.TID 0000.0001)                 7.931466238174430E+09,      /* I =270 */
(PID.TID 0000.0001)                 7.931466240246703E+09,      /* I =271 */
(PID.TID 0000.0001)                 7.931466239210566E+09,      /* I =272 */
(PID.TID 0000.0001)                 7.931466238300569E+09,      /* I =273 */
(PID.TID 0000.0001)      . . .
(PID.TID 0000.0001)                 1.185235910535067E+10,      /* I =358 */
(PID.TID 0000.0001)                 1.185235910551286E+10,      /* I =359 */
(PID.TID 0000.0001)                 1.185235910706255E+10       /* I =360 */
(PID.TID 0000.0001)     ;
(PID.TID 0000.0001) rA  =  /* rA (1,:,1,:) ( units: m^2 ) */
(PID.TID 0000.0001)                 7.665113621396177E+08,      /* J =  1 */
(PID.TID 0000.0001)                 7.900134359449342E+08,      /* J =  2 */
(PID.TID 0000.0001)                 8.143679155417176E+08,      /* J =  3 */
(PID.TID 0000.0001)                 8.395900636155584E+08,      /* J =  4 */
(PID.TID 0000.0001)                 8.656947784023314E+08,      /* J =  5 */
(PID.TID 0000.0001)                 8.926966010402582E+08,      /* J =  6 */
(PID.TID 0000.0001)                 9.206097737377057E+08,      /* J =  7 */
(PID.TID 0000.0001)                 9.494482582794807E+08,      /* J =  8 */
(PID.TID 0000.0001)                 9.792257431806778E+08,      /* J =  9 */
(PID.TID 0000.0001)                 1.009955679131553E+09,      /* J = 10 */
(PID.TID 0000.0001)                 1.041651296044221E+09,      /* J = 11 */
(PID.TID 0000.0001)                 1.074325614369065E+09,      /* J = 12 */
(PID.TID 0000.0001)                 1.107991467925779E+09,      /* J = 13 */
(PID.TID 0000.0001)                 1.142661498173082E+09,      /* J = 14 */
(PID.TID 0000.0001)                 1.178348167164929E+09,      /* J = 15 */
(PID.TID 0000.0001)                 1.215063762235644E+09,      /* J = 16 */
(PID.TID 0000.0001)                 1.252820414073754E+09,      /* J = 17 */
(PID.TID 0000.0001)                 1.291630043617734E+09,      /* J = 18 */
(PID.TID 0000.0001)                 1.331504416619858E+09,      /* J = 19 */
(PID.TID 0000.0001)                 1.372455096362339E+09,      /* J = 20 */
(PID.TID 0000.0001)                 1.414493440828222E+09,      /* J = 21 */
(PID.TID 0000.0001)                 1.457630613639386E+09,      /* J = 22 */
(PID.TID 0000.0001)                 1.501877517761831E+09,      /* J = 23 */
(PID.TID 0000.0001)                 1.547244834049951E+09,      /* J = 24 */
(PID.TID 0000.0001)                 1.593742963439136E+09,      /* J = 25 */
(PID.TID 0000.0001)                 1.641382020566774E+09,      /* J = 26 */
(PID.TID 0000.0001)                 1.690171807481416E+09,      /* J = 27 */
(PID.TID 0000.0001)                 1.740121820832662E+09,      /* J = 28 */
(PID.TID 0000.0001)                 1.791241246411172E+09,      /* J = 29 */
(PID.TID 0000.0001)                 1.843539059771026E+09       /* J = 30 */
(PID.TID 0000.0001)     ;
(PID.TID 0000.0001) rAw =  /* rAw(:,1,:,1) ( units: m^2 ) */
(PID.TID 0000.0001)                 7.658765213139513E+08,      /* I =  1 */
(PID.TID 0000.0001)                 7.671201328724998E+08,      /* I =  2 */
(PID.TID 0000.0001)                 7.682600121490355E+08,      /* I =  3 */
(PID.TID 0000.0001)      . . .
(PID.TID 0000.0001)                 1.498235320077200E+09,      /* I = 88 */
(PID.TID 0000.0001)                 1.498235324374914E+09,      /* I = 89 */
(PID.TID 0000.0001)                 1.498235322554918E+09,      /* I = 90 */
(PID.TID 0000.0001)                 1.498235320032151E+09,      /* I = 91 */
(PID.TID 0000.0001)                 1.498235322870264E+09,      /* I = 92 */
(PID.TID 0000.0001)                 1.498235320455615E+09,      /* I = 93 */
(PID.TID 0000.0001)      . . .
(PID.TID 0000.0001)                 3.624512080512094E+09,      /* I =178 */
(PID.TID 0000.0001)                 3.624512075673789E+09,      /* I =179 */
(PID.TID 0000.0001)                 3.624512076872102E+09,      /* I =180 */
(PID.TID 0000.0001)                 3.624512078809227E+09,      /* I =181 */
(PID.TID 0000.0001)                 3.624512078349722E+09,      /* I =182 */
(PID.TID 0000.0001)                 3.624512079539027E+09,      /* I =183 */
(PID.TID 0000.0001)      . . .
(PID.TID 0000.0001)                 7.931466237444630E+09,      /* I =268 */
(PID.TID 0000.0001)                 7.931466237714928E+09,      /* I =269 */
(PID.TID 0000.0001)                 7.931466237399580E+09,      /* I =270 */
(PID.TID 0000.0001)                 7.931466240381851E+09,      /* I =271 */
(PID.TID 0000.0001)                 7.931466239210566E+09,      /* I =272 */
(PID.TID 0000.0001)                 7.931466238922249E+09,      /* I =273 */
(PID.TID 0000.0001)      . . .
(PID.TID 0000.0001)                 1.185235910713463E+10,      /* I =358 */
(PID.TID 0000.0001)                 1.185235910491820E+10,      /* I =359 */
(PID.TID 0000.0001)                 1.185235910766622E+10       /* I =360 */
(PID.TID 0000.0001)     ;
(PID.TID 0000.0001) rAw =  /* rAw(1,:,1,:) ( units: m^2 ) */
(PID.TID 0000.0001)                 7.658765213139513E+08,      /* J =  1 */
(PID.TID 0000.0001)                 7.893768970448780E+08,      /* J =  2 */
(PID.TID 0000.0001)                 8.137283914516071E+08,      /* J =  3 */
(PID.TID 0000.0001)                 8.389460603348250E+08,      /* J =  4 */
(PID.TID 0000.0001)                 8.650445848102766E+08,      /* J =  5 */
(PID.TID 0000.0001)                 8.920382782103341E+08,      /* J =  6 */
(PID.TID 0000.0001)                 9.199411445401106E+08,      /* J =  7 */
(PID.TID 0000.0001)                 9.487668893433769E+08,      /* J =  8 */
(PID.TID 0000.0001)                 9.785289545527842E+08,      /* J =  9 */
(PID.TID 0000.0001)                 1.009240515336406E+09,      /* J = 10 */
(PID.TID 0000.0001)                 1.040914522930714E+09,      /* J = 11 */
(PID.TID 0000.0001)                 1.073563715488477E+09,      /* J = 12 */
(PID.TID 0000.0001)                 1.107200612276400E+09,      /* J = 13 */
(PID.TID 0000.0001)                 1.141837554111466E+09,      /* J = 14 */
(PID.TID 0000.0001)                 1.177486672294872E+09,      /* J = 15 */
(PID.TID 0000.0001)                 1.214159933192917E+09,      /* J = 16 */
(PID.TID 0000.0001)                 1.251869095602249E+09,      /* J = 17 */
(PID.TID 0000.0001)                 1.290625742284441E+09,      /* J = 18 */
(PID.TID 0000.0001)                 1.330441258846839E+09,      /* J = 19 */
(PID.TID 0000.0001)                 1.371326820624166E+09,      /* J = 20 */
(PID.TID 0000.0001)                 1.413293399742275E+09,      /* J = 21 */
(PID.TID 0000.0001)                 1.456351737475827E+09,      /* J = 22 */
(PID.TID 0000.0001)                 1.500512320083793E+09,      /* J = 23 */
(PID.TID 0000.0001)                 1.545785394792978E+09,      /* J = 24 */
(PID.TID 0000.0001)                 1.592180902277974E+09,      /* J = 25 */
(PID.TID 0000.0001)                 1.639708504465653E+09,      /* J = 26 */
(PID.TID 0000.0001)                 1.688377519501836E+09,      /* J = 27 */
(PID.TID 0000.0001)                 1.738196956421325E+09,      /* J = 28 */
(PID.TID 0000.0001)                 1.789175499722981E+09,      /* J = 29 */
(PID.TID 0000.0001)                 1.841321602441802E+09       /* J = 30 */
(PID.TID 0000.0001)     ;
(PID.TID 0000.0001) rAs =  /* rAs(:,1,:,1) ( units: m^2 ) */
(PID.TID 0000.0001)                 7.550751050606852E+08,      /* I =  1 */
(PID.TID 0000.0001)                 7.562658447772087E+08,      /* I =  2 */
(PID.TID 0000.0001)                 7.573533970032284E+08,      /* I =  3 */
(PID.TID 0000.0001)      . . .
(PID.TID 0000.0001)                 1.526961511751005E+09,      /* I = 88 */
(PID.TID 0000.0001)                 1.520696144655040E+09,      /* I = 89 */
(PID.TID 0000.0001)                 1.514382342777465E+09,      /* I = 90 */
(PID.TID 0000.0001)                 1.508026691630045E+09,      /* I = 91 */
(PID.TID 0000.0001)                 1.501635975113130E+09,      /* I = 92 */
(PID.TID 0000.0001)                 1.495217194535514E+09,      /* I = 93 */
(PID.TID 0000.0001)      . . .
(PID.TID 0000.0001)                 3.584244955548074E+09,      /* I =178 */
(PID.TID 0000.0001)                 3.584244957611338E+09,      /* I =179 */
(PID.TID 0000.0001)                 3.584244955890450E+09,      /* I =180 */
(PID.TID 0000.0001)                 3.584244958971829E+09,      /* I =181 */
(PID.TID 0000.0001)                 3.584244957007675E+09,      /* I =182 */
(PID.TID 0000.0001)                 3.584244958323118E+09,      /* I =183 */
(PID.TID 0000.0001)      . . .
(PID.TID 0000.0001)                 7.846503780634002E+09,      /* I =268 */
(PID.TID 0000.0001)                 7.846503778886086E+09,      /* I =269 */
(PID.TID 0000.0001)                 7.846503777786879E+09,      /* I =270 */
(PID.TID 0000.0001)                 7.846503780895288E+09,      /* I =271 */
(PID.TID 0000.0001)                 7.846503780958357E+09,      /* I =272 */
(PID.TID 0000.0001)                 7.846503777858959E+09,      /* I =273 */
(PID.TID 0000.0001)      . . .
(PID.TID 0000.0001)                 1.188440584826531E+10,      /* I =358 */
(PID.TID 0000.0001)                 1.188440585079709E+10,      /* I =359 */
(PID.TID 0000.0001)                 1.188440584834640E+10       /* I =360 */
(PID.TID 0000.0001)     ;
(PID.TID 0000.0001) rAs =  /* rAs(1,:,1,:) ( units: m^2 ) */
(PID.TID 0000.0001)                 7.550751050606852E+08,      /* J =  1 */
(PID.TID 0000.0001)                 7.781568160584769E+08,      /* J =  2 */
(PID.TID 0000.0001)                 8.020831616625657E+08,      /* J =  3 */
(PID.TID 0000.0001)                 8.268695937660589E+08,      /* J =  4 */
(PID.TID 0000.0001)                 8.525311818286231E+08,      /* J =  5 */
(PID.TID 0000.0001)                 8.790826547724357E+08,      /* J =  6 */
(PID.TID 0000.0001)                 9.065383887828039E+08,      /* J =  7 */
(PID.TID 0000.0001)                 9.349124897125442E+08,      /* J =  8 */
(PID.TID 0000.0001)                 9.642187819277472E+08,      /* J =  9 */
(PID.TID 0000.0001)                 9.944708240750725E+08,      /* J = 10 */
(PID.TID 0000.0001)                 1.025681954725808E+09,      /* J = 11 */
(PID.TID 0000.0001)                 1.057865313008499E+09,      /* J = 12 */
(PID.TID 0000.0001)                 1.091033805921100E+09,      /* J = 13 */
(PID.TID 0000.0001)                 1.125200178247652E+09,      /* J = 14 */
(PID.TID 0000.0001)                 1.160376979600140E+09,      /* J = 15 */
(PID.TID 0000.0001)                 1.196576586510721E+09,      /* J = 16 */
(PID.TID 0000.0001)                 1.233811208089928E+09,      /* J = 17 */
(PID.TID 0000.0001)                 1.272092866313053E+09,      /* J = 18 */
(PID.TID 0000.0001)                 1.311433405822894E+09,      /* J = 19 */
(PID.TID 0000.0001)                 1.351844507714875E+09,      /* J = 20 */
(PID.TID 0000.0001)                 1.393337606051485E+09,      /* J = 21 */
(PID.TID 0000.0001)                 1.435923987908001E+09,      /* J = 22 */
(PID.TID 0000.0001)                 1.479614675036705E+09,      /* J = 23 */
(PID.TID 0000.0001)                 1.524420466465598E+09,      /* J = 24 */
(PID.TID 0000.0001)                 1.570351910729954E+09,      /* J = 25 */
(PID.TID 0000.0001)                 1.617419255741331E+09,      /* J = 26 */
(PID.TID 0000.0001)                 1.665632470339211E+09,      /* J = 27 */
(PID.TID 0000.0001)                 1.715001205152071E+09,      /* J = 28 */
(PID.TID 0000.0001)                 1.765534790867491E+09,      /* J = 29 */
(PID.TID 0000.0001)                 1.817242347954489E+09       /* J = 30 */
(PID.TID 0000.0001)     ;
(PID.TID 0000.0001) globalArea = /* Integrated horizontal Area (m^2) */
(PID.TID 0000.0001)                 3.580138611494435E+14
(PID.TID 0000.0001)     ;
(PID.TID 0000.0001) hasWetCSCorners = /* Domain contains CS corners (True/False) */
(PID.TID 0000.0001)                   F
(PID.TID 0000.0001)     ;
(PID.TID 0000.0001) // =======================================================
(PID.TID 0000.0001) // End of Model config. summary
(PID.TID 0000.0001) // =======================================================
(PID.TID 0000.0001) 
(PID.TID 0000.0001) == Packages configuration : Check & print summary ==
(PID.TID 0000.0001) 
(PID.TID 0000.0001) GGL90_CHECK: #define ALLOW_GGL90
(PID.TID 0000.0001) GGL90_CHECK: Some form of convection has been enabled
(PID.TID 0000.0001) GMREDI_CHECK: #define GMREDI
(PID.TID 0000.0001) GM_AdvForm =     /* if FALSE => use SkewFlux Form */
(PID.TID 0000.0001)                   T
(PID.TID 0000.0001)     ;
(PID.TID 0000.0001) GM_InMomAsStress = /* if TRUE => apply as Eddy Stress */
(PID.TID 0000.0001)                   F
(PID.TID 0000.0001)     ;
(PID.TID 0000.0001) GM_AdvSeparate = /* Calc Bolus & Euler Adv. separately */
(PID.TID 0000.0001)                   F
(PID.TID 0000.0001)     ;
(PID.TID 0000.0001) GM_ExtraDiag =   /* Tensor Extra Diag (line 1&2) non 0 */
(PID.TID 0000.0001)                   T
(PID.TID 0000.0001)     ;
(PID.TID 0000.0001) GM_isopycK =    /* Background Isopyc. Diffusivity [m^2/s] */
(PID.TID 0000.0001)                 1.000000000000000E+03
(PID.TID 0000.0001)     ;
(PID.TID 0000.0001) GM_skewflx*K =  /* Background GM_SkewFlx Diffusivity [m^2/s] */
(PID.TID 0000.0001)                 0.000000000000000E+00
(PID.TID 0000.0001)     ;
(PID.TID 0000.0001) GM_advec*K =    /* Backg. GM-Advec(=Bolus) Diffusivity [m^2/s]*/
(PID.TID 0000.0001)                 1.000000000000000E+03
(PID.TID 0000.0001)     ;
(PID.TID 0000.0001) GM_Kmin_horiz = /* Minimum Horizontal Diffusivity [m^2/s] */
(PID.TID 0000.0001)                 1.000000000000000E+02
(PID.TID 0000.0001)     ;
(PID.TID 0000.0001) GM_Visbeck_alpha = /* Visbeck alpha coeff. [-] */
(PID.TID 0000.0001)                 0.000000000000000E+00
(PID.TID 0000.0001)     ;
(PID.TID 0000.0001) GM_Small_Number =  /* epsilon used in slope calc */
(PID.TID 0000.0001)                 9.999999999999999E-21
(PID.TID 0000.0001)     ;
(PID.TID 0000.0001) GM_slopeSqCutoff = /* Slope^2 cut-off value */
(PID.TID 0000.0001)                 1.000000000000000E+08
(PID.TID 0000.0001)     ;
(PID.TID 0000.0001) GM_taper_scheme =  /* Type of Tapering/Clipping scheme */
(PID.TID 0000.0001)               'stableGmAdjTap                          '
(PID.TID 0000.0001)     ;
(PID.TID 0000.0001) GM_maxSlope =  /* Maximum Slope (Tapering/Clipping) */
(PID.TID 0000.0001)                 4.000000000000000E-03
(PID.TID 0000.0001)     ;
(PID.TID 0000.0001) GM_facTrL2dz = /* Minimum Trans.Layer Thick. (factor of dz) */
(PID.TID 0000.0001)                 1.000000000000000E+00
(PID.TID 0000.0001)     ;
(PID.TID 0000.0001) GM_facTrL2ML = /* Max.Trans.Layer Thick. (factor of MxL Depth)*/
(PID.TID 0000.0001)                 5.000000000000000E+00
(PID.TID 0000.0001)     ;
(PID.TID 0000.0001) GM_maxTransLay = /* Maximum Transition Layer Thickness [m] */
(PID.TID 0000.0001)                 5.000000000000000E+02
(PID.TID 0000.0001)     ;
(PID.TID 0000.0001) GM_UseBVP = /* if TRUE => use bvp a la Ferrari et al. (2010) */
(PID.TID 0000.0001)                   F
(PID.TID 0000.0001)     ;
(PID.TID 0000.0001) GM_BVP_ModeNumber = /* Vertical mode number for BVP wave speed */
(PID.TID 0000.0001)                       1
(PID.TID 0000.0001)     ;
(PID.TID 0000.0001) GM_BVP_cMin = /* Minimum wave speed for BVP [m/s] */
(PID.TID 0000.0001)                 1.000000000000000E-01
(PID.TID 0000.0001)     ;
(PID.TID 0000.0001) GM_useSubMeso = /* if TRUE => use Sub-Meso param. (B.Fox-Kemper) */
(PID.TID 0000.0001)                   F
(PID.TID 0000.0001)     ;
(PID.TID 0000.0001) subMeso_Ceff = /* efficiency coeff. of Mixed-Layer Eddies [-] */
(PID.TID 0000.0001)                 7.000000000000001E-02
(PID.TID 0000.0001)     ;
(PID.TID 0000.0001) subMeso_invTau = /* inverse of Sub-Meso mixing time-scale [/s] */
(PID.TID 0000.0001)                 2.000000000000000E-06
(PID.TID 0000.0001)     ;
(PID.TID 0000.0001) subMeso_LfMin = /* minimum length-scale "Lf" [m] */
(PID.TID 0000.0001)                 1.000000000000000E+03
(PID.TID 0000.0001)     ;
(PID.TID 0000.0001) subMeso_Lmax = /* maximum grid-scale length [m] */
(PID.TID 0000.0001)                 1.100000000000000E+05
(PID.TID 0000.0001)     ;
(PID.TID 0000.0001) GM_useLeithQG = /* if TRUE => add QG Leith viscosity to GMRedi tensor */
(PID.TID 0000.0001)                   F
(PID.TID 0000.0001)     ;
(PID.TID 0000.0001) EXF_CHECK: #define ALLOW_EXF
(PID.TID 0000.0001) SEAICE_CHECK: #define ALLOW_SEAICE
(PID.TID 0000.0001) SALT_PLUME_CHECK: #define SALT_PLUME
(PID.TID 0000.0001) CTRL_CHECK:  --> Starts to check CTRL set-up
(PID.TID 0000.0001) CTRL_CHECK:  <-- Ends Normally
(PID.TID 0000.0001) 
(PID.TID 0000.0001) COST_CHECK: #define ALLOW_COST
(PID.TID 0000.0001) GAD_CHECK: #define ALLOW_GENERIC_ADVDIFF
(PID.TID 0000.0001) // =======================================================
(PID.TID 0000.0001) // Check Model config. (CONFIG_CHECK):
(PID.TID 0000.0001) // CONFIG_CHECK : Normal End
(PID.TID 0000.0001) // =======================================================
(PID.TID 0000.0001) 
(PID.TID 0000.0001)  nRecords = 403 ; filePrec =  64 ; fileIter =     26280
(PID.TID 0000.0001)     nDims =   2 , dims:
(PID.TID 0000.0001)    1:  90   1  90
(PID.TID 0000.0001)    2:1170   11170
(PID.TID 0000.0001)     nFlds =  11 , nFl3D =   8 , fields:
(PID.TID 0000.0001)  >Uvel    < >Vvel    < >Theta   < >Salt    < >GuNm1   < >GuNm2   < >GvNm1   < >GvNm2   < >EtaN    < >dEtaHdt < >EtaH    <
(PID.TID 0000.0001) missingVal=  1.00000000000000E+00 ; nTimRec =   1 , timeList:
(PID.TID 0000.0001)   9.460800000000E+07
(PID.TID 0000.0001) READ_MFLDS_3D_RL: read field: "Uvel    ", #   1 in fldList, rec=   1
(PID.TID 0000.0001) READ_MFLDS_3D_RL: read field: "Vvel    ", #   2 in fldList, rec=   2
(PID.TID 0000.0001) READ_MFLDS_3D_RL: read field: "Theta   ", #   3 in fldList, rec=   3
(PID.TID 0000.0001) READ_MFLDS_3D_RL: read field: "Salt    ", #   4 in fldList, rec=   4
(PID.TID 0000.0001) READ_MFLDS_3D_RL: read field: "GuNm1   ", #   5 in fldList, rec=   5
(PID.TID 0000.0001) READ_MFLDS_3D_RL: read field: "GuNm2   ", #   6 in fldList, rec=   6
(PID.TID 0000.0001) READ_MFLDS_3D_RL: read field: "GvNm1   ", #   7 in fldList, rec=   7
(PID.TID 0000.0001) READ_MFLDS_3D_RL: read field: "GvNm2   ", #   8 in fldList, rec=   8
(PID.TID 0000.0001) READ_MFLDS_3D_RL: read field: "EtaN    ", #   9 in fldList, rec= 401
(PID.TID 0000.0001) READ_MFLDS_3D_RL: read field: "dEtaHdt ", #  10 in fldList, rec= 402
(PID.TID 0000.0001) READ_MFLDS_3D_RL: read field: "EtaH    ", #  11 in fldList, rec= 403
(PID.TID 0000.0001) READ_MFLDS_CHECK: - normal end ; reset MFLDS file-name: pickup.0000000001
(PID.TID 0000.0001)  nRecords =   6 ; filePrec =  64 ; fileIter =     17532
(PID.TID 0000.0001)     nDims =   2 , dims:
(PID.TID 0000.0001)    1:  90   1  90
(PID.TID 0000.0001)    2:1170   11170
(PID.TID 0000.0001)     nFlds =   6 , nFl3D =   0 , fields:
(PID.TID 0000.0001)  >siTICE  < >siAREA  < >siHEFF  < >siHSNOW < >siUICE  < >siVICE  <
(PID.TID 0000.0001) missingVal=  1.00000000000000E+00 ; nTimRec =   1 , timeList:
(PID.TID 0000.0001)   6.311520000000E+07
(PID.TID 0000.0001) READ_MFLDS_LEV_RL: read field: "siTICE  ", #   1 in fldList, rec=   1
(PID.TID 0000.0001) READ_MFLDS_3D_RL: read field: "siAREA  ", #   2 in fldList, rec=   2
(PID.TID 0000.0001) READ_MFLDS_3D_RL: read field: "siHEFF  ", #   3 in fldList, rec=   3
(PID.TID 0000.0001) READ_MFLDS_3D_RL: read field: "siHSNOW ", #   4 in fldList, rec=   4
(PID.TID 0000.0001) READ_MFLDS_3D_RL: read field: "siUICE  ", #   5 in fldList, rec=   5
(PID.TID 0000.0001) READ_MFLDS_3D_RL: read field: "siVICE  ", #   6 in fldList, rec=   6
(PID.TID 0000.0001) READ_MFLDS_CHECK: - normal end ; reset MFLDS file-name: pickup_seaice.0000000001
(PID.TID 0000.0001) ECCO_READ_PICKUP: pickup_ecco.0000000001 and pickup_ecco.0000000001.data not provided.
(PID.TID 0000.0001) ECCO_READ_PICKUP: sterGloH is referenced to its value at time step:         1
(PID.TID 0000.0001) // =======================================================
(PID.TID 0000.0001) // Model current state
(PID.TID 0000.0001) // =======================================================
(PID.TID 0000.0001) 
(PID.TID 0000.0001) // =======================================================
(PID.TID 0000.0001) // Begin MONITOR dynamic field statistics
(PID.TID 0000.0001) // =======================================================
(PID.TID 0000.0001) %MON time_tsnumber                =                     1
(PID.TID 0000.0001) %MON time_secondsf                =   3.6000000000000E+03
(PID.TID 0000.0001) %MON dynstat_eta_max              =   1.1649617539007E+00
(PID.TID 0000.0001) %MON dynstat_eta_min              =  -4.6700615440053E+00
(PID.TID 0000.0001) %MON dynstat_eta_mean             =  -1.5203064440443E-03
(PID.TID 0000.0001) %MON dynstat_eta_sd               =   7.4409656095768E-01
(PID.TID 0000.0001) %MON dynstat_eta_del2             =   2.8654430644039E-04
(PID.TID 0000.0001) %MON dynstat_uvel_max             =   1.2364694445976E+00
(PID.TID 0000.0001) %MON dynstat_uvel_min             =  -8.3284467352180E-01
(PID.TID 0000.0001) %MON dynstat_uvel_mean            =   1.4903840003719E-03
(PID.TID 0000.0001) %MON dynstat_uvel_sd              =   2.2036698095320E-02
(PID.TID 0000.0001) %MON dynstat_uvel_del2            =   2.0075270336467E-05
(PID.TID 0000.0001) %MON dynstat_vvel_max             =   8.7434227877514E-01
(PID.TID 0000.0001) %MON dynstat_vvel_min             =  -1.1708625967647E+00
(PID.TID 0000.0001) %MON dynstat_vvel_mean            =   1.1157885003784E-03
(PID.TID 0000.0001) %MON dynstat_vvel_sd              =   2.4150472153282E-02
(PID.TID 0000.0001) %MON dynstat_vvel_del2            =   2.1481684850467E-05
(PID.TID 0000.0001) %MON dynstat_wvel_max             =   1.3887286370216E-03
(PID.TID 0000.0001) %MON dynstat_wvel_min             =  -1.5475967426743E-03
(PID.TID 0000.0001) %MON dynstat_wvel_mean            =  -5.4756322869313E-10
(PID.TID 0000.0001) %MON dynstat_wvel_sd              =   3.2415261545303E-05
(PID.TID 0000.0001) %MON dynstat_wvel_del2            =   4.7654194081307E-08
(PID.TID 0000.0001) %MON dynstat_theta_max            =   3.2662113620722E+01
(PID.TID 0000.0001) %MON dynstat_theta_min            =  -2.0421380210090E+00
(PID.TID 0000.0001) %MON dynstat_theta_mean           =   3.5905898203867E+00
(PID.TID 0000.0001) %MON dynstat_theta_sd             =   4.4366585534423E+00
(PID.TID 0000.0001) %MON dynstat_theta_del2           =   1.0906365140976E-04
(PID.TID 0000.0001) %MON dynstat_salt_max             =   4.0711531472424E+01
(PID.TID 0000.0001) %MON dynstat_salt_min             =   1.7460198338112E+01
(PID.TID 0000.0001) %MON dynstat_salt_mean            =   3.4725688683040E+01
(PID.TID 0000.0001) %MON dynstat_salt_sd              =   3.7887958113312E-01
(PID.TID 0000.0001) %MON dynstat_salt_del2            =   2.7262403734036E-05
(PID.TID 0000.0001) %MON forcing_qnet_max             =   0.0000000000000E+00
(PID.TID 0000.0001) %MON forcing_qnet_min             =   0.0000000000000E+00
(PID.TID 0000.0001) %MON forcing_qnet_mean            =   0.0000000000000E+00
(PID.TID 0000.0001) %MON forcing_qnet_sd              =   0.0000000000000E+00
(PID.TID 0000.0001) %MON forcing_qnet_del2            =   0.0000000000000E+00
(PID.TID 0000.0001) %MON forcing_qsw_max              =   0.0000000000000E+00
(PID.TID 0000.0001) %MON forcing_qsw_min              =   0.0000000000000E+00
(PID.TID 0000.0001) %MON forcing_qsw_mean             =   0.0000000000000E+00
(PID.TID 0000.0001) %MON forcing_qsw_sd               =   0.0000000000000E+00
(PID.TID 0000.0001) %MON forcing_qsw_del2             =   0.0000000000000E+00
(PID.TID 0000.0001) %MON forcing_empmr_max            =   0.0000000000000E+00
(PID.TID 0000.0001) %MON forcing_empmr_min            =   0.0000000000000E+00
(PID.TID 0000.0001) %MON forcing_empmr_mean           =   0.0000000000000E+00
(PID.TID 0000.0001) %MON forcing_empmr_sd             =   0.0000000000000E+00
(PID.TID 0000.0001) %MON forcing_empmr_del2           =   0.0000000000000E+00
(PID.TID 0000.0001) %MON forcing_fu_max               =   0.0000000000000E+00
(PID.TID 0000.0001) %MON forcing_fu_min               =   0.0000000000000E+00
(PID.TID 0000.0001) %MON forcing_fu_mean              =   0.0000000000000E+00
(PID.TID 0000.0001) %MON forcing_fu_sd                =   0.0000000000000E+00
(PID.TID 0000.0001) %MON forcing_fu_del2              =   0.0000000000000E+00
(PID.TID 0000.0001) %MON forcing_fv_max               =   0.0000000000000E+00
(PID.TID 0000.0001) %MON forcing_fv_min               =   0.0000000000000E+00
(PID.TID 0000.0001) %MON forcing_fv_mean              =   0.0000000000000E+00
(PID.TID 0000.0001) %MON forcing_fv_sd                =   0.0000000000000E+00
(PID.TID 0000.0001) %MON forcing_fv_del2              =   0.0000000000000E+00
(PID.TID 0000.0001) %MON trAdv_CFL_u_max              =   0.0000000000000E+00
(PID.TID 0000.0001) %MON trAdv_CFL_v_max              =   0.0000000000000E+00
(PID.TID 0000.0001) %MON trAdv_CFL_w_max              =   0.0000000000000E+00
(PID.TID 0000.0001) %MON advcfl_uvel_max              =   8.0664211777146E-02
(PID.TID 0000.0001) %MON advcfl_vvel_max              =   1.0617714259210E-01
(PID.TID 0000.0001) %MON advcfl_wvel_max              =   3.9256865285652E-01
(PID.TID 0000.0001) %MON advcfl_W_hf_max              =   4.0639436437180E-01
(PID.TID 0000.0001) %MON pe_b_mean                    =   7.2831434081762E-04
(PID.TID 0000.0001) %MON ke_max                       =   7.2441074563647E-01
(PID.TID 0000.0001) %MON ke_mean                      =   5.1707313936724E-04
(PID.TID 0000.0001) %MON ke_vol                       =   1.3349973367836E+18
(PID.TID 0000.0001) %MON vort_r_min                   =  -3.8026433991434E-05
(PID.TID 0000.0001) %MON vort_r_max                   =   4.7759128535933E-05
(PID.TID 0000.0001) %MON vort_a_mean                  =  -1.9727864647440E-05
(PID.TID 0000.0001) %MON vort_a_sd                    =   7.4543496346972E-05
(PID.TID 0000.0001) %MON vort_p_mean                  =  -2.1760535632506E-05
(PID.TID 0000.0001) %MON vort_p_sd                    =   9.7239011642033E-05
(PID.TID 0000.0001) %MON surfExpan_theta_mean         =   2.4203058679100E-07
(PID.TID 0000.0001) %MON surfExpan_salt_mean          =   4.5107090400203E-08
(PID.TID 0000.0001) // =======================================================
(PID.TID 0000.0001) // End MONITOR dynamic field statistics
(PID.TID 0000.0001) // =======================================================
(PID.TID 0000.0001) // =======================================================
(PID.TID 0000.0001) // Begin MONITOR SEAICE statistics
(PID.TID 0000.0001) // =======================================================
(PID.TID 0000.0001) %MON seaice_tsnumber              =                     1
(PID.TID 0000.0001) %MON seaice_time_sec              =   3.6000000000000E+03
(PID.TID 0000.0001) %MON seaice_uice_max              =   4.0000000000000E-01
(PID.TID 0000.0001) %MON seaice_uice_min              =  -4.0000000000000E-01
(PID.TID 0000.0001) %MON seaice_uice_mean             =  -8.3054598624025E-03
(PID.TID 0000.0001) %MON seaice_uice_sd               =   1.9802383574176E-01
(PID.TID 0000.0001) %MON seaice_uice_del2             =   2.2931571122150E-04
(PID.TID 0000.0001) %MON seaice_vice_max              =   4.0000000000000E-01
(PID.TID 0000.0001) %MON seaice_vice_min              =  -4.0000000000000E-01
(PID.TID 0000.0001) %MON seaice_vice_mean             =  -2.1960776359499E-02
(PID.TID 0000.0001) %MON seaice_vice_sd               =   2.1302038025672E-01
(PID.TID 0000.0001) %MON seaice_vice_del2             =   2.3932563818061E-04
(PID.TID 0000.0001) %MON seaice_area_max              =   9.5000000000000E-01
(PID.TID 0000.0001) %MON seaice_area_min              =   0.0000000000000E+00
(PID.TID 0000.0001) %MON seaice_area_mean             =   3.9604786510182E-02
(PID.TID 0000.0001) %MON seaice_area_sd               =   1.7980909641160E-01
(PID.TID 0000.0001) %MON seaice_area_del2             =   2.6594024819003E-04
(PID.TID 0000.0001) %MON seaice_heff_max              =   3.8218264238952E+00
(PID.TID 0000.0001) %MON seaice_heff_min              =   0.0000000000000E+00
(PID.TID 0000.0001) %MON seaice_heff_mean             =   5.3402340798870E-02
(PID.TID 0000.0001) %MON seaice_heff_sd               =   3.0457579098920E-01
(PID.TID 0000.0001) %MON seaice_heff_del2             =   2.9768922729777E-04
(PID.TID 0000.0001) %MON seaice_hsnow_max             =   7.9290598183447E-01
(PID.TID 0000.0001) %MON seaice_hsnow_min             =  -2.5688456292151E-05
(PID.TID 0000.0001) %MON seaice_hsnow_mean            =   5.2622163825718E-03
(PID.TID 0000.0001) %MON seaice_hsnow_sd              =   3.1459336872198E-02
(PID.TID 0000.0001) %MON seaice_hsnow_del2            =   5.5839351445612E-05
(PID.TID 0000.0001) // =======================================================
(PID.TID 0000.0001) // End MONITOR SEAICE statistics
(PID.TID 0000.0001) // =======================================================
(PID.TID 0000.0001) // =======================================================
(PID.TID 0000.0001) // Begin MONITOR EXF statistics
(PID.TID 0000.0001) // =======================================================
(PID.TID 0000.0001) %MON exf_tsnumber                 =                     1
(PID.TID 0000.0001) %MON exf_time_sec                 =   3.6000000000000E+03
(PID.TID 0000.0001) %MON exf_ustress_max              =   2.5830642142983E+00
(PID.TID 0000.0001) %MON exf_ustress_min              =  -1.6499220070871E+00
(PID.TID 0000.0001) %MON exf_ustress_mean             =   1.4181691145065E-02
(PID.TID 0000.0001) %MON exf_ustress_sd               =   1.1195004600087E-01
(PID.TID 0000.0001) %MON exf_ustress_del2             =   1.1728184459861E-04
(PID.TID 0000.0001) %MON exf_vstress_max              =   1.2743696786023E+00
(PID.TID 0000.0001) %MON exf_vstress_min              =  -7.0554853707240E-01
(PID.TID 0000.0001) %MON exf_vstress_mean             =   3.3676690098333E-03
(PID.TID 0000.0001) %MON exf_vstress_sd               =   1.1243215476666E-01
(PID.TID 0000.0001) %MON exf_vstress_del2             =   8.5099646428395E-05
(PID.TID 0000.0001) %MON exf_hflux_max                =   1.4219504581265E+03
(PID.TID 0000.0001) %MON exf_hflux_min                =  -6.3563281880288E+02
(PID.TID 0000.0001) %MON exf_hflux_mean               =   1.1555911473784E+01
(PID.TID 0000.0001) %MON exf_hflux_sd                 =   2.4292322164825E+02
(PID.TID 0000.0001) %MON exf_hflux_del2               =   4.1761310759966E-01
(PID.TID 0000.0001) %MON exf_sflux_max                =   2.0297785210967E-07
(PID.TID 0000.0001) %MON exf_sflux_min                =  -2.0653215051962E-06
(PID.TID 0000.0001) %MON exf_sflux_mean               =   3.4894087494918E-09
(PID.TID 0000.0001) %MON exf_sflux_sd                 =   8.4737712940928E-08
(PID.TID 0000.0001) %MON exf_sflux_del2               =   2.1341038493597E-10
(PID.TID 0000.0001) %MON exf_wspeed_max               =   2.8558225299134E+01
(PID.TID 0000.0001) %MON exf_wspeed_min               =   1.0088437682558E-01
(PID.TID 0000.0001) %MON exf_wspeed_mean              =   7.0219492112999E+00
(PID.TID 0000.0001) %MON exf_wspeed_sd                =   3.1528193754141E+00
(PID.TID 0000.0001) %MON exf_wspeed_del2              =   1.2202768954786E-02
(PID.TID 0000.0001) %MON exf_atemp_max                =   3.0411803961435E+02
(PID.TID 0000.0001) %MON exf_atemp_min                =   2.3398511259974E+02
(PID.TID 0000.0001) %MON exf_atemp_mean               =   2.8933787565788E+02
(PID.TID 0000.0001) %MON exf_atemp_sd                 =   1.2236331092196E+01
(PID.TID 0000.0001) %MON exf_atemp_del2               =   2.6489412914339E-02
(PID.TID 0000.0001) %MON exf_aqh_max                  =   2.2450833697104E-02
(PID.TID 0000.0001) %MON exf_aqh_min                  =   1.0299983705857E-04
(PID.TID 0000.0001) %MON exf_aqh_mean                 =   1.1082834772583E-02
(PID.TID 0000.0001) %MON exf_aqh_sd                   =   5.7256856594827E-03
(PID.TID 0000.0001) %MON exf_aqh_del2                 =   1.4949215076321E-05
(PID.TID 0000.0001) %MON exf_lwflux_max               =   2.2534587379642E+02
(PID.TID 0000.0001) %MON exf_lwflux_min               =  -1.1162927863880E+01
(PID.TID 0000.0001) %MON exf_lwflux_mean              =   5.7693270626035E+01
(PID.TID 0000.0001) %MON exf_lwflux_sd                =   2.8575419456989E+01
(PID.TID 0000.0001) %MON exf_lwflux_del2              =   1.0682598680115E-01
(PID.TID 0000.0001) %MON exf_evap_max                 =   2.2286369356014E-07
(PID.TID 0000.0001) %MON exf_evap_min                 =  -3.2967306329183E-08
(PID.TID 0000.0001) %MON exf_evap_mean                =   4.3285482234928E-08
(PID.TID 0000.0001) %MON exf_evap_sd                  =   2.8731672448872E-08
(PID.TID 0000.0001) %MON exf_evap_del2                =   6.9682553774528E-11
(PID.TID 0000.0001) %MON exf_precip_max               =   1.5566883251364E-06
(PID.TID 0000.0001) %MON exf_precip_min               =  -2.0080626496280E-10
(PID.TID 0000.0001) %MON exf_precip_mean              =   3.6749569332377E-08
(PID.TID 0000.0001) %MON exf_precip_sd                =   7.3127235358509E-08
(PID.TID 0000.0001) %MON exf_precip_del2              =   2.1007217368948E-10
(PID.TID 0000.0001) %MON exf_swflux_max               =  -0.0000000000000E+00
(PID.TID 0000.0001) %MON exf_swflux_min               =  -7.1565804996112E+02
(PID.TID 0000.0001) %MON exf_swflux_mean              =  -1.8235433352047E+02
(PID.TID 0000.0001) %MON exf_swflux_sd                =   1.8902404879823E+02
(PID.TID 0000.0001) %MON exf_swflux_del2              =   3.5561004554959E-01
(PID.TID 0000.0001) %MON exf_swdown_max               =   7.7183804861069E+02
(PID.TID 0000.0001) %MON exf_swdown_min               =   0.0000000000000E+00
(PID.TID 0000.0001) %MON exf_swdown_mean              =   1.9772924626638E+02
(PID.TID 0000.0001) %MON exf_swdown_sd                =   2.0442119149120E+02
(PID.TID 0000.0001) %MON exf_swdown_del2              =   3.8622554994183E-01
(PID.TID 0000.0001) %MON exf_lwdown_max               =   4.5310130129136E+02
(PID.TID 0000.0001) %MON exf_lwdown_min               =   7.4358702978273E+01
(PID.TID 0000.0001) %MON exf_lwdown_mean              =   3.5373037948602E+02
(PID.TID 0000.0001) %MON exf_lwdown_sd                =   6.3648158683720E+01
(PID.TID 0000.0001) %MON exf_lwdown_del2              =   4.7567487233875E-01
(PID.TID 0000.0001) %MON exf_runoff_max               =   2.0228868359320E-06
(PID.TID 0000.0001) %MON exf_runoff_min               =   0.0000000000000E+00
(PID.TID 0000.0001) %MON exf_runoff_mean              =   3.0465041530593E-09
(PID.TID 0000.0001) %MON exf_runoff_sd                =   2.3833188800058E-08
(PID.TID 0000.0001) %MON exf_runoff_del2              =   1.8078241557072E-11
(PID.TID 0000.0001) // =======================================================
(PID.TID 0000.0001) // End MONITOR EXF statistics
(PID.TID 0000.0001) // =======================================================
(PID.TID 0000.0001) SOLVE_FOR_PRESSURE: putPmEinXvector =    F
 cg2d: Sum(rhs),rhsMax =   3.01093895386309E+00  1.10672143507061E+00
(PID.TID 0000.0001)      cg2d_init_res =   3.85834085263964E-01
(PID.TID 0000.0001)      cg2d_iters(min,last) =      -1      91
(PID.TID 0000.0001)      cg2d_last_res =   6.66839447788446E-06
(PID.TID 0000.0001) // =======================================================
(PID.TID 0000.0001) // Begin MONITOR dynamic field statistics
(PID.TID 0000.0001) // =======================================================
(PID.TID 0000.0001) %MON time_tsnumber                =                     2
(PID.TID 0000.0001) %MON time_secondsf                =   7.2000000000000E+03
(PID.TID 0000.0001) %MON dynstat_eta_max              =   1.2135957138257E+00
(PID.TID 0000.0001) %MON dynstat_eta_min              =  -4.6493157030874E+00
(PID.TID 0000.0001) %MON dynstat_eta_mean             =  -1.5239298465866E-03
(PID.TID 0000.0001) %MON dynstat_eta_sd               =   7.4415882635763E-01
(PID.TID 0000.0001) %MON dynstat_eta_del2             =   2.8493468514830E-04
(PID.TID 0000.0001) %MON dynstat_uvel_max             =   1.1159520345006E+00
(PID.TID 0000.0001) %MON dynstat_uvel_min             =  -7.3007988978228E-01
(PID.TID 0000.0001) %MON dynstat_uvel_mean            =   1.5000894492557E-03
(PID.TID 0000.0001) %MON dynstat_uvel_sd              =   2.1969321735236E-02
(PID.TID 0000.0001) %MON dynstat_uvel_del2            =   1.8989949051306E-05
(PID.TID 0000.0001) %MON dynstat_vvel_max             =   9.1654419749879E-01
(PID.TID 0000.0001) %MON dynstat_vvel_min             =  -1.0380552567343E+00
(PID.TID 0000.0001) %MON dynstat_vvel_mean            =   1.1286769905197E-03
(PID.TID 0000.0001) %MON dynstat_vvel_sd              =   2.4038799938447E-02
(PID.TID 0000.0001) %MON dynstat_vvel_del2            =   2.0389776212571E-05
(PID.TID 0000.0001) %MON dynstat_wvel_max             =   1.2692573708558E-03
(PID.TID 0000.0001) %MON dynstat_wvel_min             =  -1.3261818659334E-03
(PID.TID 0000.0001) %MON dynstat_wvel_mean            =   5.5029028151479E-10
(PID.TID 0000.0001) %MON dynstat_wvel_sd              =   3.1694355439754E-05
(PID.TID 0000.0001) %MON dynstat_wvel_del2            =   4.2201337875924E-08
(PID.TID 0000.0001) %MON dynstat_theta_max            =   3.2656406738414E+01
(PID.TID 0000.0001) %MON dynstat_theta_min            =  -2.0421252617650E+00
(PID.TID 0000.0001) %MON dynstat_theta_mean           =   3.5905905693503E+00
(PID.TID 0000.0001) %MON dynstat_theta_sd             =   4.4366397382099E+00
(PID.TID 0000.0001) %MON dynstat_theta_del2           =   1.0900752644403E-04
(PID.TID 0000.0001) %MON dynstat_salt_max             =   4.0711528396241E+01
(PID.TID 0000.0001) %MON dynstat_salt_min             =   1.7459662871694E+01
(PID.TID 0000.0001) %MON dynstat_salt_mean            =   3.4725688720723E+01
(PID.TID 0000.0001) %MON dynstat_salt_sd              =   3.7887893054556E-01
(PID.TID 0000.0001) %MON dynstat_salt_del2            =   2.7225562625609E-05
(PID.TID 0000.0001) %MON forcing_qnet_max             =   8.0509849840274E+02
(PID.TID 0000.0001) %MON forcing_qnet_min             =  -6.3563281880288E+02
(PID.TID 0000.0001) %MON forcing_qnet_mean            =  -3.1209583613876E+00
(PID.TID 0000.0001) %MON forcing_qnet_sd              =   2.1919399912823E+02
(PID.TID 0000.0001) %MON forcing_qnet_del2            =   1.5996664158306E-01
(PID.TID 0000.0001) %MON forcing_qsw_max              =   0.0000000000000E+00
(PID.TID 0000.0001) %MON forcing_qsw_min              =  -7.1565804996112E+02
(PID.TID 0000.0001) %MON forcing_qsw_mean             =  -1.8059516178559E+02
(PID.TID 0000.0001) %MON forcing_qsw_sd               =   1.8783729796543E+02
(PID.TID 0000.0001) %MON forcing_qsw_del2             =   7.7206380319989E-02
(PID.TID 0000.0001) %MON forcing_empmr_max            =   2.3512483335671E-03
(PID.TID 0000.0001) %MON forcing_empmr_min            =  -2.0674962989384E-03
(PID.TID 0000.0001) %MON forcing_empmr_mean           =   1.0356892266798E-06
(PID.TID 0000.0001) %MON forcing_empmr_sd             =   1.0913149193901E-04
(PID.TID 0000.0001) %MON forcing_empmr_del2           =   4.8408035172780E-07
(PID.TID 0000.0001) %MON forcing_fu_max               =   1.5899234024015E+00
(PID.TID 0000.0001) %MON forcing_fu_min               =  -2.3247458819893E+00
(PID.TID 0000.0001) %MON forcing_fu_mean              =   1.4011402227557E-02
(PID.TID 0000.0001) %MON forcing_fu_sd                =   1.1028674036910E-01
(PID.TID 0000.0001) %MON forcing_fu_del2              =   9.5044457052902E-05
(PID.TID 0000.0001) %MON forcing_fv_max               =   1.0806687656912E+00
(PID.TID 0000.0001) %MON forcing_fv_min               =  -5.9273030279997E-01
(PID.TID 0000.0001) %MON forcing_fv_mean              =   3.5255442738353E-03
(PID.TID 0000.0001) %MON forcing_fv_sd                =   1.1125204119160E-01
(PID.TID 0000.0001) %MON forcing_fv_del2              =   8.1895835504401E-05
(PID.TID 0000.0001) %MON trAdv_CFL_u_max              =   7.1979100569143E-02
(PID.TID 0000.0001) %MON trAdv_CFL_v_max              =   9.9869841629806E-02
(PID.TID 0000.0001) %MON trAdv_CFL_w_max              =   3.6097399357304E-01
(PID.TID 0000.0001) %MON advcfl_uvel_max              =   6.9429380280565E-02
(PID.TID 0000.0001) %MON advcfl_vvel_max              =   9.6616454019211E-02
(PID.TID 0000.0001) %MON advcfl_wvel_max              =   3.5778211212818E-01
(PID.TID 0000.0001) %MON advcfl_W_hf_max              =   3.5922916857917E-01
(PID.TID 0000.0001) %MON pe_b_mean                    =   4.3867106588005E-04
(PID.TID 0000.0001) %MON ke_max                       =   5.8036789950013E-01
(PID.TID 0000.0001) %MON ke_mean                      =   5.1307638433556E-04
(PID.TID 0000.0001) %MON ke_vol                       =   1.3349973326485E+18
(PID.TID 0000.0001) %MON vort_r_min                   =  -3.4304057548385E-05
(PID.TID 0000.0001) %MON vort_r_max                   =   3.8568070394052E-05
(PID.TID 0000.0001) %MON vort_a_mean                  =  -1.9727864647440E-05
(PID.TID 0000.0001) %MON vort_a_sd                    =   7.4543459189272E-05
(PID.TID 0000.0001) %MON vort_p_mean                  =  -2.1760535714105E-05
(PID.TID 0000.0001) %MON vort_p_sd                    =   9.7239365897769E-05
(PID.TID 0000.0001) %MON surfExpan_theta_mean         =   1.6152467432539E-07
(PID.TID 0000.0001) %MON surfExpan_salt_mean          =   3.8700780568263E-08
(PID.TID 0000.0001) // =======================================================
(PID.TID 0000.0001) // End MONITOR dynamic field statistics
(PID.TID 0000.0001) // =======================================================
(PID.TID 0000.0001) // =======================================================
(PID.TID 0000.0001) // Begin MONITOR SEAICE statistics
(PID.TID 0000.0001) // =======================================================
(PID.TID 0000.0001) %MON seaice_tsnumber              =                     2
(PID.TID 0000.0001) %MON seaice_time_sec              =   7.2000000000000E+03
(PID.TID 0000.0001) %MON seaice_uice_max              =   4.0000000000000E-01
(PID.TID 0000.0001) %MON seaice_uice_min              =  -4.0000000000000E-01
(PID.TID 0000.0001) %MON seaice_uice_mean             =   5.3779112203114E-04
(PID.TID 0000.0001) %MON seaice_uice_sd               =   1.8340017894322E-01
(PID.TID 0000.0001) %MON seaice_uice_del2             =   2.5327484588445E-04
(PID.TID 0000.0001) %MON seaice_vice_max              =   4.0000000000000E-01
(PID.TID 0000.0001) %MON seaice_vice_min              =  -4.0000000000000E-01
(PID.TID 0000.0001) %MON seaice_vice_mean             =  -1.1187343341821E-02
(PID.TID 0000.0001) %MON seaice_vice_sd               =   1.9038232283705E-01
(PID.TID 0000.0001) %MON seaice_vice_del2             =   2.5899625217667E-04
(PID.TID 0000.0001) %MON seaice_area_max              =   9.7000000000000E-01
(PID.TID 0000.0001) %MON seaice_area_min              =   0.0000000000000E+00
(PID.TID 0000.0001) %MON seaice_area_mean             =   3.9498059688376E-02
(PID.TID 0000.0001) %MON seaice_area_sd               =   1.7978855557563E-01
(PID.TID 0000.0001) %MON seaice_area_del2             =   2.7193227071953E-04
(PID.TID 0000.0001) %MON seaice_heff_max              =   3.8221676231564E+00
(PID.TID 0000.0001) %MON seaice_heff_min              =   0.0000000000000E+00
(PID.TID 0000.0001) %MON seaice_heff_mean             =   5.3407518955657E-02
(PID.TID 0000.0001) %MON seaice_heff_sd               =   3.0463943208605E-01
(PID.TID 0000.0001) %MON seaice_heff_del2             =   2.9534632010756E-04
(PID.TID 0000.0001) %MON seaice_hsnow_max             =   7.9705947543989E-01
(PID.TID 0000.0001) %MON seaice_hsnow_min             =  -4.3265022788995E-08
(PID.TID 0000.0001) %MON seaice_hsnow_mean            =   5.2592356508746E-03
(PID.TID 0000.0001) %MON seaice_hsnow_sd              =   3.1460641540297E-02
(PID.TID 0000.0001) %MON seaice_hsnow_del2            =   5.5449524930780E-05
(PID.TID 0000.0001) // =======================================================
(PID.TID 0000.0001) // End MONITOR SEAICE statistics
(PID.TID 0000.0001) // =======================================================
(PID.TID 0000.0001) // =======================================================
(PID.TID 0000.0001) // Begin MONITOR EXF statistics
(PID.TID 0000.0001) // =======================================================
(PID.TID 0000.0001) %MON exf_tsnumber                 =                     2
(PID.TID 0000.0001) %MON exf_time_sec                 =   7.2000000000000E+03
(PID.TID 0000.0001) %MON exf_ustress_max              =   3.1753117858615E+00
(PID.TID 0000.0001) %MON exf_ustress_min              =  -1.6363924724902E+00
(PID.TID 0000.0001) %MON exf_ustress_mean             =   1.4190045022845E-02
(PID.TID 0000.0001) %MON exf_ustress_sd               =   1.1137769184557E-01
(PID.TID 0000.0001) %MON exf_ustress_del2             =   1.2102760175260E-04
(PID.TID 0000.0001) %MON exf_vstress_max              =   1.4258036013628E+00
(PID.TID 0000.0001) %MON exf_vstress_min              =  -7.2053249232875E-01
(PID.TID 0000.0001) %MON exf_vstress_mean             =   3.6627740987673E-03
(PID.TID 0000.0001) %MON exf_vstress_sd               =   1.1380292359207E-01
(PID.TID 0000.0001) %MON exf_vstress_del2             =   8.8647225187899E-05
(PID.TID 0000.0001) %MON exf_hflux_max                =   1.5247876447288E+03
(PID.TID 0000.0001) %MON exf_hflux_min                =  -7.5446533945148E+02
(PID.TID 0000.0001) %MON exf_hflux_mean               =   8.9307226783944E+00
(PID.TID 0000.0001) %MON exf_hflux_sd                 =   2.5981715932664E+02
(PID.TID 0000.0001) %MON exf_hflux_del2               =   4.3571360503981E-01
(PID.TID 0000.0001) %MON exf_sflux_max                =   2.0169613188883E-07
(PID.TID 0000.0001) %MON exf_sflux_min                =  -2.0729733162595E-06
(PID.TID 0000.0001) %MON exf_sflux_mean               =   3.8392205937469E-09
(PID.TID 0000.0001) %MON exf_sflux_sd                 =   8.7037085238936E-08
(PID.TID 0000.0001) %MON exf_sflux_del2               =   2.2812586183148E-10
(PID.TID 0000.0001) %MON exf_wspeed_max               =   2.9662385819350E+01
(PID.TID 0000.0001) %MON exf_wspeed_min               =   6.7645036785843E-02
(PID.TID 0000.0001) %MON exf_wspeed_mean              =   7.0288462093920E+00
(PID.TID 0000.0001) %MON exf_wspeed_sd                =   3.1724360967177E+00
(PID.TID 0000.0001) %MON exf_wspeed_del2              =   1.2264344464194E-02
(PID.TID 0000.0001) %MON exf_atemp_max                =   3.0433537557744E+02
(PID.TID 0000.0001) %MON exf_atemp_min                =   2.3397722790733E+02
(PID.TID 0000.0001) %MON exf_atemp_mean               =   2.8932090829558E+02
(PID.TID 0000.0001) %MON exf_atemp_sd                 =   1.2230664159234E+01
(PID.TID 0000.0001) %MON exf_atemp_del2               =   2.6486985608424E-02
(PID.TID 0000.0001) %MON exf_aqh_max                  =   2.2472211834859E-02
(PID.TID 0000.0001) %MON exf_aqh_min                  =   9.8958685782029E-05
(PID.TID 0000.0001) %MON exf_aqh_mean                 =   1.1077737181743E-02
(PID.TID 0000.0001) %MON exf_aqh_sd                   =   5.7235707829470E-03
(PID.TID 0000.0001) %MON exf_aqh_del2                 =   1.4943555151673E-05
(PID.TID 0000.0001) %MON exf_lwflux_max               =   2.2756047431671E+02
(PID.TID 0000.0001) %MON exf_lwflux_min               =  -1.2039101956039E+01
(PID.TID 0000.0001) %MON exf_lwflux_mean              =   5.7936550519110E+01
(PID.TID 0000.0001) %MON exf_lwflux_sd                =   2.8835392973448E+01
(PID.TID 0000.0001) %MON exf_lwflux_del2              =   1.0757981876750E-01
(PID.TID 0000.0001) %MON exf_evap_max                 =   2.2178370357359E-07
(PID.TID 0000.0001) %MON exf_evap_min                 =  -3.6287918449912E-08
(PID.TID 0000.0001) %MON exf_evap_mean                =   4.3387029046664E-08
(PID.TID 0000.0001) %MON exf_evap_sd                  =   2.8850238021025E-08
(PID.TID 0000.0001) %MON exf_evap_del2                =   7.0348198685164E-11
(PID.TID 0000.0001) %MON exf_precip_max               =   1.8974578178756E-06
(PID.TID 0000.0001) %MON exf_precip_min               =  -1.0040313248140E-10
(PID.TID 0000.0001) %MON exf_precip_mean              =   3.6501756512671E-08
(PID.TID 0000.0001) %MON exf_precip_sd                =   7.5661810549031E-08
(PID.TID 0000.0001) %MON exf_precip_del2              =   2.2474241159602E-10
(PID.TID 0000.0001) %MON exf_swflux_max               =  -0.0000000000000E+00
(PID.TID 0000.0001) %MON exf_swflux_min               =  -8.0593549145477E+02
(PID.TID 0000.0001) %MON exf_swflux_mean              =  -1.8563223429702E+02
(PID.TID 0000.0001) %MON exf_swflux_sd                =   2.1035810402451E+02
(PID.TID 0000.0001) %MON exf_swflux_del2              =   3.7882122948626E-01
(PID.TID 0000.0001) %MON exf_swdown_max               =   8.6894320788975E+02
(PID.TID 0000.0001) %MON exf_swdown_min               =   0.0000000000000E+00
(PID.TID 0000.0001) %MON exf_swdown_mean              =   2.0135381421034E+02
(PID.TID 0000.0001) %MON exf_swdown_sd                =   2.2757690056048E+02
(PID.TID 0000.0001) %MON exf_swdown_del2              =   4.1159446052206E-01
(PID.TID 0000.0001) %MON exf_lwdown_max               =   4.4862195209826E+02
(PID.TID 0000.0001) %MON exf_lwdown_min               =   7.2075689823807E+01
(PID.TID 0000.0001) %MON exf_lwdown_mean              =   3.5346757728871E+02
(PID.TID 0000.0001) %MON exf_lwdown_sd                =   6.3747209310025E+01
(PID.TID 0000.0001) %MON exf_lwdown_del2              =   4.7547629881444E-01
(PID.TID 0000.0001) %MON exf_runoff_max               =   2.0244639153310E-06
(PID.TID 0000.0001) %MON exf_runoff_min               =   0.0000000000000E+00
(PID.TID 0000.0001) %MON exf_runoff_mean              =   3.0460519402462E-09
(PID.TID 0000.0001) %MON exf_runoff_sd                =   2.3847779208041E-08
(PID.TID 0000.0001) %MON exf_runoff_del2              =   1.8083385233819E-11
(PID.TID 0000.0001) // =======================================================
(PID.TID 0000.0001) // End MONITOR EXF statistics
(PID.TID 0000.0001) // =======================================================
 cg2d: Sum(rhs),rhsMax =   3.01131476956519E+00  1.10183783642738E+00
(PID.TID 0000.0001)      cg2d_init_res =   4.03291087967738E-01
(PID.TID 0000.0001)      cg2d_iters(min,last) =      -1      97
(PID.TID 0000.0001)      cg2d_last_res =   6.88051360107281E-06
(PID.TID 0000.0001) // =======================================================
(PID.TID 0000.0001) // Begin MONITOR dynamic field statistics
(PID.TID 0000.0001) // =======================================================
(PID.TID 0000.0001) %MON time_tsnumber                =                     3
(PID.TID 0000.0001) %MON time_secondsf                =   1.0800000000000E+04
(PID.TID 0000.0001) %MON dynstat_eta_max              =   1.2828568438169E+00
(PID.TID 0000.0001) %MON dynstat_eta_min              =  -4.6050914916876E+00
(PID.TID 0000.0001) %MON dynstat_eta_mean             =  -1.5268573689469E-03
(PID.TID 0000.0001) %MON dynstat_eta_sd               =   7.4422906533927E-01
(PID.TID 0000.0001) %MON dynstat_eta_del2             =   2.8252283354184E-04
(PID.TID 0000.0001) %MON dynstat_uvel_max             =   1.0485872675818E+00
(PID.TID 0000.0001) %MON dynstat_uvel_min             =  -7.0553129845408E-01
(PID.TID 0000.0001) %MON dynstat_uvel_mean            =   1.5139774465512E-03
(PID.TID 0000.0001) %MON dynstat_uvel_sd              =   2.1938701435059E-02
(PID.TID 0000.0001) %MON dynstat_uvel_del2            =   1.8163333513551E-05
(PID.TID 0000.0001) %MON dynstat_vvel_max             =   9.4002289039950E-01
(PID.TID 0000.0001) %MON dynstat_vvel_min             =  -9.4479586115573E-01
(PID.TID 0000.0001) %MON dynstat_vvel_mean            =   1.1360952206931E-03
(PID.TID 0000.0001) %MON dynstat_vvel_sd              =   2.3993813297252E-02
(PID.TID 0000.0001) %MON dynstat_vvel_del2            =   1.9536982481392E-05
(PID.TID 0000.0001) %MON dynstat_wvel_max             =   1.0928693106848E-03
(PID.TID 0000.0001) %MON dynstat_wvel_min             =  -1.2072774759460E-03
(PID.TID 0000.0001) %MON dynstat_wvel_mean            =   1.0337178718193E-09
(PID.TID 0000.0001) %MON dynstat_wvel_sd              =   3.1049613716711E-05
(PID.TID 0000.0001) %MON dynstat_wvel_del2            =   3.8305704026182E-08
(PID.TID 0000.0001) %MON dynstat_theta_max            =   3.2641500127209E+01
(PID.TID 0000.0001) %MON dynstat_theta_min            =  -2.0421242488937E+00
(PID.TID 0000.0001) %MON dynstat_theta_mean           =   3.5905919203750E+00
(PID.TID 0000.0001) %MON dynstat_theta_sd             =   4.4366224266007E+00
(PID.TID 0000.0001) %MON dynstat_theta_del2           =   1.0893021788892E-04
(PID.TID 0000.0001) %MON dynstat_salt_max             =   4.0711525591028E+01
(PID.TID 0000.0001) %MON dynstat_salt_min             =   1.7458314026201E+01
(PID.TID 0000.0001) %MON dynstat_salt_mean            =   3.4725688754895E+01
(PID.TID 0000.0001) %MON dynstat_salt_sd              =   3.7887842941409E-01
(PID.TID 0000.0001) %MON dynstat_salt_del2            =   2.7179850118639E-05
(PID.TID 0000.0001) %MON forcing_qnet_max             =   8.3607681866551E+02
(PID.TID 0000.0001) %MON forcing_qnet_min             =  -7.5446533945148E+02
(PID.TID 0000.0001) %MON forcing_qnet_mean            =  -5.7841231892067E+00
(PID.TID 0000.0001) %MON forcing_qnet_sd              =   2.3693672938112E+02
(PID.TID 0000.0001) %MON forcing_qnet_del2            =   1.6332447219708E-01
(PID.TID 0000.0001) %MON forcing_qsw_max              =   0.0000000000000E+00
(PID.TID 0000.0001) %MON forcing_qsw_min              =  -8.0593549145477E+02
(PID.TID 0000.0001) %MON forcing_qsw_mean             =  -1.8376712857780E+02
(PID.TID 0000.0001) %MON forcing_qsw_sd               =   2.0893941717624E+02
(PID.TID 0000.0001) %MON forcing_qsw_del2             =   8.1269751088064E-02
(PID.TID 0000.0001) %MON forcing_empmr_max            =   2.3476894352747E-03
(PID.TID 0000.0001) %MON forcing_empmr_min            =  -2.0754930536244E-03
(PID.TID 0000.0001) %MON forcing_empmr_mean           =   8.3678347466387E-07
(PID.TID 0000.0001) %MON forcing_empmr_sd             =   1.1121243797339E-04
(PID.TID 0000.0001) %MON forcing_empmr_del2           =   4.9291464846294E-07
(PID.TID 0000.0001) %MON forcing_fu_max               =   1.7707957663300E+00
(PID.TID 0000.0001) %MON forcing_fu_min               =  -2.1960679039497E+00
(PID.TID 0000.0001) %MON forcing_fu_mean              =   1.4291587780646E-02
(PID.TID 0000.0001) %MON forcing_fu_sd                =   1.0958765880984E-01
(PID.TID 0000.0001) %MON forcing_fu_del2              =   9.6667751114070E-05
(PID.TID 0000.0001) %MON forcing_fv_max               =   1.2153963510475E+00
(PID.TID 0000.0001) %MON forcing_fv_min               =  -5.5347155586724E-01
(PID.TID 0000.0001) %MON forcing_fv_mean              =   3.7627146152742E-03
(PID.TID 0000.0001) %MON forcing_fv_sd                =   1.1282440049646E-01
(PID.TID 0000.0001) %MON forcing_fv_del2              =   8.3729492355807E-05
(PID.TID 0000.0001) %MON trAdv_CFL_u_max              =   6.7836615478560E-02
(PID.TID 0000.0001) %MON trAdv_CFL_v_max              =   9.3167369770463E-02
(PID.TID 0000.0001) %MON trAdv_CFL_w_max              =   3.3136304114164E-01
(PID.TID 0000.0001) %MON advcfl_uvel_max              =   6.4676270788464E-02
(PID.TID 0000.0001) %MON advcfl_vvel_max              =   9.1151125284491E-02
(PID.TID 0000.0001) %MON advcfl_wvel_max              =   3.3308470617426E-01
(PID.TID 0000.0001) %MON advcfl_W_hf_max              =   3.3443192018111E-01
(PID.TID 0000.0001) %MON pe_b_mean                    =   4.3852361305106E-04
(PID.TID 0000.0001) %MON ke_max                       =   4.9603099473441E-01
(PID.TID 0000.0001) %MON ke_mean                      =   5.1141437672861E-04
(PID.TID 0000.0001) %MON ke_vol                       =   1.3349973313513E+18
(PID.TID 0000.0001) %MON vort_r_min                   =  -3.1806217692959E-05
(PID.TID 0000.0001) %MON vort_r_max                   =   3.6481652874459E-05
(PID.TID 0000.0001) %MON vort_a_mean                  =  -1.9727864647440E-05
(PID.TID 0000.0001) %MON vort_a_sd                    =   7.4543433054553E-05
(PID.TID 0000.0001) %MON vort_p_mean                  =  -2.1760535770861E-05
(PID.TID 0000.0001) %MON vort_p_sd                    =   9.7239720999934E-05
(PID.TID 0000.0001) %MON surfExpan_theta_mean         =   1.6686001604660E-07
(PID.TID 0000.0001) %MON surfExpan_salt_mean          =   2.6524420725452E-08
(PID.TID 0000.0001) // =======================================================
(PID.TID 0000.0001) // End MONITOR dynamic field statistics
(PID.TID 0000.0001) // =======================================================
(PID.TID 0000.0001) // =======================================================
(PID.TID 0000.0001) // Begin MONITOR SEAICE statistics
(PID.TID 0000.0001) // =======================================================
(PID.TID 0000.0001) %MON seaice_tsnumber              =                     3
(PID.TID 0000.0001) %MON seaice_time_sec              =   1.0800000000000E+04
(PID.TID 0000.0001) %MON seaice_uice_max              =   4.0000000000000E-01
(PID.TID 0000.0001) %MON seaice_uice_min              =  -4.0000000000000E-01
(PID.TID 0000.0001) %MON seaice_uice_mean             =   7.9792556773432E-04
(PID.TID 0000.0001) %MON seaice_uice_sd               =   1.7778588440479E-01
(PID.TID 0000.0001) %MON seaice_uice_del2             =   2.2625432556797E-04
(PID.TID 0000.0001) %MON seaice_vice_max              =   4.0000000000000E-01
(PID.TID 0000.0001) %MON seaice_vice_min              =  -4.0000000000000E-01
(PID.TID 0000.0001) %MON seaice_vice_mean             =  -8.4153164352123E-03
(PID.TID 0000.0001) %MON seaice_vice_sd               =   1.8357330307020E-01
(PID.TID 0000.0001) %MON seaice_vice_del2             =   2.2866916063533E-04
(PID.TID 0000.0001) %MON seaice_area_max              =   9.7000000000000E-01
(PID.TID 0000.0001) %MON seaice_area_min              =   0.0000000000000E+00
(PID.TID 0000.0001) %MON seaice_area_mean             =   3.9462322619304E-02
(PID.TID 0000.0001) %MON seaice_area_sd               =   1.7981380037604E-01
(PID.TID 0000.0001) %MON seaice_area_del2             =   2.7171782917009E-04
(PID.TID 0000.0001) %MON seaice_heff_max              =   3.8225074537418E+00
(PID.TID 0000.0001) %MON seaice_heff_min              =   0.0000000000000E+00
(PID.TID 0000.0001) %MON seaice_heff_mean             =   5.3413142853606E-02
(PID.TID 0000.0001) %MON seaice_heff_sd               =   3.0470591516687E-01
(PID.TID 0000.0001) %MON seaice_heff_del2             =   2.9291932059956E-04
(PID.TID 0000.0001) %MON seaice_hsnow_max             =   8.0951974604405E-01
(PID.TID 0000.0001) %MON seaice_hsnow_min             =  -2.1657933086802E-08
(PID.TID 0000.0001) %MON seaice_hsnow_mean            =   5.2528558732255E-03
(PID.TID 0000.0001) %MON seaice_hsnow_sd              =   3.1456278967185E-02
(PID.TID 0000.0001) %MON seaice_hsnow_del2            =   5.5051728152272E-05
(PID.TID 0000.0001) // =======================================================
(PID.TID 0000.0001) // End MONITOR SEAICE statistics
(PID.TID 0000.0001) // =======================================================
(PID.TID 0000.0001) // =======================================================
(PID.TID 0000.0001) // Begin MONITOR EXF statistics
(PID.TID 0000.0001) // =======================================================
(PID.TID 0000.0001) %MON exf_tsnumber                 =                     3
(PID.TID 0000.0001) %MON exf_time_sec                 =   1.0800000000000E+04
(PID.TID 0000.0001) %MON exf_ustress_max              =   3.7675593574248E+00
(PID.TID 0000.0001) %MON exf_ustress_min              =  -1.6515822781047E+00
(PID.TID 0000.0001) %MON exf_ustress_mean             =   1.4198398900624E-02
(PID.TID 0000.0001) %MON exf_ustress_sd               =   1.1190418368265E-01
(PID.TID 0000.0001) %MON exf_ustress_del2             =   1.2716485812224E-04
(PID.TID 0000.0001) %MON exf_vstress_max              =   1.5772375241233E+00
(PID.TID 0000.0001) %MON exf_vstress_min              =  -7.3551644758510E-01
(PID.TID 0000.0001) %MON exf_vstress_mean             =   3.9578791877013E-03
(PID.TID 0000.0001) %MON exf_vstress_sd               =   1.1587407852827E-01
(PID.TID 0000.0001) %MON exf_vstress_del2             =   9.4837461086138E-05
(PID.TID 0000.0001) %MON exf_hflux_max                =   1.6313815521884E+03
(PID.TID 0000.0001) %MON exf_hflux_min                =  -8.7180082412194E+02
(PID.TID 0000.0001) %MON exf_hflux_mean               =   6.4254852091529E+00
(PID.TID 0000.0001) %MON exf_hflux_sd                 =   2.8539929883352E+02
(PID.TID 0000.0001) %MON exf_hflux_del2               =   4.6373786645386E-01
(PID.TID 0000.0001) %MON exf_sflux_max                =   2.0132889153471E-07
(PID.TID 0000.0001) %MON exf_sflux_min                =  -2.1874770648526E-06
(PID.TID 0000.0001) %MON exf_sflux_mean               =   4.2191688903313E-09
(PID.TID 0000.0001) %MON exf_sflux_sd                 =   9.0682429773526E-08
(PID.TID 0000.0001) %MON exf_sflux_del2               =   2.5255405848308E-10
(PID.TID 0000.0001) %MON exf_wspeed_max               =   3.1023215152125E+01
(PID.TID 0000.0001) %MON exf_wspeed_min               =   3.4405696746102E-02
(PID.TID 0000.0001) %MON exf_wspeed_mean              =   7.0357432074842E+00
(PID.TID 0000.0001) %MON exf_wspeed_sd                =   3.2138081561858E+00
(PID.TID 0000.0001) %MON exf_wspeed_del2              =   1.2382375544772E-02
(PID.TID 0000.0001) %MON exf_atemp_max                =   3.0466859127087E+02
(PID.TID 0000.0001) %MON exf_atemp_min                =   2.3396934321492E+02
(PID.TID 0000.0001) %MON exf_atemp_mean               =   2.8930394093328E+02
(PID.TID 0000.0001) %MON exf_atemp_sd                 =   1.2226903411807E+01
(PID.TID 0000.0001) %MON exf_atemp_del2               =   2.6489491236807E-02
(PID.TID 0000.0001) %MON exf_aqh_max                  =   2.2493589972614E-02
(PID.TID 0000.0001) %MON exf_aqh_min                  =   9.4917534505493E-05
(PID.TID 0000.0001) %MON exf_aqh_mean                 =   1.1072639590902E-02
(PID.TID 0000.0001) %MON exf_aqh_sd                   =   5.7228877080768E-03
(PID.TID 0000.0001) %MON exf_aqh_del2                 =   1.4943211487414E-05
(PID.TID 0000.0001) %MON exf_lwflux_max               =   2.2977500525357E+02
(PID.TID 0000.0001) %MON exf_lwflux_min               =  -1.4123135704899E+01
(PID.TID 0000.0001) %MON exf_lwflux_mean              =   5.8188612826822E+01
(PID.TID 0000.0001) %MON exf_lwflux_sd                =   2.9273780737367E+01
(PID.TID 0000.0001) %MON exf_lwflux_del2              =   1.0864349920818E-01
(PID.TID 0000.0001) %MON exf_evap_max                 =   2.2107236478334E-07
(PID.TID 0000.0001) %MON exf_evap_min                 =  -3.9745350550993E-08
(PID.TID 0000.0001) %MON exf_evap_mean                =   4.3518712310730E-08
(PID.TID 0000.0001) %MON exf_evap_sd                  =   2.9135745616957E-08
(PID.TID 0000.0001) %MON exf_evap_del2                =   7.1510864645277E-11
(PID.TID 0000.0001) %MON exf_precip_max               =   2.2382273106148E-06
(PID.TID 0000.0001) %MON exf_precip_min               =   0.0000000000000E+00
(PID.TID 0000.0001) %MON exf_precip_mean              =   3.6253943692965E-08
(PID.TID 0000.0001) %MON exf_precip_sd                =   7.9611502541251E-08
(PID.TID 0000.0001) %MON exf_precip_del2              =   2.4893828624398E-10
(PID.TID 0000.0001) %MON exf_swflux_max               =  -0.0000000000000E+00
(PID.TID 0000.0001) %MON exf_swflux_min               =  -9.2659486649252E+02
(PID.TID 0000.0001) %MON exf_swflux_mean              =  -1.8891016181612E+02
(PID.TID 0000.0001) %MON exf_swflux_sd                =   2.4112509023380E+02
(PID.TID 0000.0001) %MON exf_swflux_del2              =   4.1190557130922E-01
(PID.TID 0000.0001) %MON exf_swdown_max               =   9.9903560248409E+02
(PID.TID 0000.0001) %MON exf_swdown_min               =   0.0000000000000E+00
(PID.TID 0000.0001) %MON exf_swdown_mean              =   2.0497838215430E+02
(PID.TID 0000.0001) %MON exf_swdown_sd                =   2.6092846894672E+02
(PID.TID 0000.0001) %MON exf_swdown_del2              =   4.4760955474313E-01
(PID.TID 0000.0001) %MON exf_lwdown_max               =   4.4966405675997E+02
(PID.TID 0000.0001) %MON exf_lwdown_min               =   6.9792676669342E+01
(PID.TID 0000.0001) %MON exf_lwdown_mean              =   3.5320477509141E+02
(PID.TID 0000.0001) %MON exf_lwdown_sd                =   6.3932665333118E+01
(PID.TID 0000.0001) %MON exf_lwdown_del2              =   4.7535245490837E-01
(PID.TID 0000.0001) %MON exf_runoff_max               =   2.0260409947300E-06
(PID.TID 0000.0001) %MON exf_runoff_min               =   0.0000000000000E+00
(PID.TID 0000.0001) %MON exf_runoff_mean              =   3.0455997274330E-09
(PID.TID 0000.0001) %MON exf_runoff_sd                =   2.3862374258804E-08
(PID.TID 0000.0001) %MON exf_runoff_del2              =   1.8088535238315E-11
(PID.TID 0000.0001) // =======================================================
(PID.TID 0000.0001) // End MONITOR EXF statistics
(PID.TID 0000.0001) // =======================================================
 cg2d: Sum(rhs),rhsMax =   3.01096285026427E+00  1.09717250638400E+00
(PID.TID 0000.0001)      cg2d_init_res =   3.75526144676127E-01
(PID.TID 0000.0001)      cg2d_iters(min,last) =      -1      95
(PID.TID 0000.0001)      cg2d_last_res =   6.79765838843589E-06
(PID.TID 0000.0001) // =======================================================
(PID.TID 0000.0001) // Begin MONITOR dynamic field statistics
(PID.TID 0000.0001) // =======================================================
(PID.TID 0000.0001) %MON time_tsnumber                =                     4
(PID.TID 0000.0001) %MON time_secondsf                =   1.4400000000000E+04
(PID.TID 0000.0001) %MON dynstat_eta_max              =   1.3328663158897E+00
(PID.TID 0000.0001) %MON dynstat_eta_min              =  -4.5663553354032E+00
(PID.TID 0000.0001) %MON dynstat_eta_mean             =  -1.5298507262637E-03
(PID.TID 0000.0001) %MON dynstat_eta_sd               =   7.4433614004983E-01
(PID.TID 0000.0001) %MON dynstat_eta_del2             =   2.7984251403169E-04
(PID.TID 0000.0001) %MON dynstat_uvel_max             =   9.8317328552007E-01
(PID.TID 0000.0001) %MON dynstat_uvel_min             =  -7.1029776451596E-01
(PID.TID 0000.0001) %MON dynstat_uvel_mean            =   1.5201796124485E-03
(PID.TID 0000.0001) %MON dynstat_uvel_sd              =   2.1941684596011E-02
(PID.TID 0000.0001) %MON dynstat_uvel_del2            =   1.7525509810445E-05
(PID.TID 0000.0001) %MON dynstat_vvel_max             =   9.5532834722608E-01
(PID.TID 0000.0001) %MON dynstat_vvel_min             =  -9.4425714205046E-01
(PID.TID 0000.0001) %MON dynstat_vvel_mean            =   1.1407215909668E-03
(PID.TID 0000.0001) %MON dynstat_vvel_sd              =   2.3973939962640E-02
(PID.TID 0000.0001) %MON dynstat_vvel_del2            =   1.8853648631964E-05
(PID.TID 0000.0001) %MON dynstat_wvel_max             =   9.4501076967257E-04
(PID.TID 0000.0001) %MON dynstat_wvel_min             =  -1.1515801242166E-03
(PID.TID 0000.0001) %MON dynstat_wvel_mean            =   7.4590582946367E-10
(PID.TID 0000.0001) %MON dynstat_wvel_sd              =   3.0595936433528E-05
(PID.TID 0000.0001) %MON dynstat_wvel_del2            =   3.5825476275769E-08
(PID.TID 0000.0001) %MON dynstat_theta_max            =   3.2629166101444E+01
(PID.TID 0000.0001) %MON dynstat_theta_min            =  -2.0421299759595E+00
(PID.TID 0000.0001) %MON dynstat_theta_mean           =   3.5905938726988E+00
(PID.TID 0000.0001) %MON dynstat_theta_sd             =   4.4366063505382E+00
(PID.TID 0000.0001) %MON dynstat_theta_del2           =   1.0884097823267E-04
(PID.TID 0000.0001) %MON dynstat_salt_max             =   4.0711523006047E+01
(PID.TID 0000.0001) %MON dynstat_salt_min             =   1.7457223472437E+01
(PID.TID 0000.0001) %MON dynstat_salt_mean            =   3.4725688781702E+01
(PID.TID 0000.0001) %MON dynstat_salt_sd              =   3.7887796675783E-01
(PID.TID 0000.0001) %MON dynstat_salt_del2            =   2.7128487809381E-05
(PID.TID 0000.0001) %MON forcing_qnet_max             =   8.6856814224721E+02
(PID.TID 0000.0001) %MON forcing_qnet_min             =  -8.7180082412194E+02
(PID.TID 0000.0001) %MON forcing_qnet_mean            =  -8.2904942837521E+00
(PID.TID 0000.0001) %MON forcing_qnet_sd              =   2.6396631481297E+02
(PID.TID 0000.0001) %MON forcing_qnet_del2            =   1.6712247153391E-01
(PID.TID 0000.0001) %MON forcing_qsw_max              =   0.0000000000000E+00
(PID.TID 0000.0001) %MON forcing_qsw_min              =  -9.2659486649252E+02
(PID.TID 0000.0001) %MON forcing_qsw_mean             =  -1.8694441213907E+02
(PID.TID 0000.0001) %MON forcing_qsw_sd               =   2.3952482703132E+02
(PID.TID 0000.0001) %MON forcing_qsw_del2             =   8.7764312443684E-02
(PID.TID 0000.0001) %MON forcing_empmr_max            =   2.3478073769672E-03
(PID.TID 0000.0001) %MON forcing_empmr_min            =  -2.1903728374864E-03
(PID.TID 0000.0001) %MON forcing_empmr_mean           =   8.5560129970705E-07
(PID.TID 0000.0001) %MON forcing_empmr_sd             =   1.1396277847938E-04
(PID.TID 0000.0001) %MON forcing_empmr_del2           =   4.9838339401686E-07
(PID.TID 0000.0001) %MON forcing_fu_max               =   1.9027013207119E+00
(PID.TID 0000.0001) %MON forcing_fu_min               =  -2.0961877442638E+00
(PID.TID 0000.0001) %MON forcing_fu_mean              =   1.4337799733069E-02
(PID.TID 0000.0001) %MON forcing_fu_sd                =   1.0984059464068E-01
(PID.TID 0000.0001) %MON forcing_fu_del2              =   1.0043675499587E-04
(PID.TID 0000.0001) %MON forcing_fv_max               =   1.3501239362180E+00
(PID.TID 0000.0001) %MON forcing_fv_min               =  -5.5795865728158E-01
(PID.TID 0000.0001) %MON forcing_fv_mean              =   4.0413840393407E-03
(PID.TID 0000.0001) %MON forcing_fv_sd                =   1.1478529472326E-01
(PID.TID 0000.0001) %MON forcing_fv_del2              =   8.7348817738773E-05
(PID.TID 0000.0001) %MON trAdv_CFL_u_max              =   6.3866522429021E-02
(PID.TID 0000.0001) %MON trAdv_CFL_v_max              =   8.8635047611891E-02
(PID.TID 0000.0001) %MON trAdv_CFL_w_max              =   3.0689579927945E-01
(PID.TID 0000.0001) %MON advcfl_uvel_max              =   6.0641573297876E-02
(PID.TID 0000.0001) %MON advcfl_vvel_max              =   8.8412973278455E-02
(PID.TID 0000.0001) %MON advcfl_wvel_max              =   3.0871750574344E-01
(PID.TID 0000.0001) %MON advcfl_W_hf_max              =   3.0996466347519E-01
(PID.TID 0000.0001) %MON pe_b_mean                    =   4.3839302244042E-04
(PID.TID 0000.0001) %MON ke_max                       =   4.5536370279387E-01
(PID.TID 0000.0001) %MON ke_mean                      =   5.1103189510279E-04
(PID.TID 0000.0001) %MON ke_vol                       =   1.3349973303032E+18
(PID.TID 0000.0001) %MON vort_r_min                   =  -3.0042367689328E-05
(PID.TID 0000.0001) %MON vort_r_max                   =   3.5104117294420E-05
(PID.TID 0000.0001) %MON vort_a_mean                  =  -1.9727864647440E-05
(PID.TID 0000.0001) %MON vort_a_sd                    =   7.4543413685951E-05
(PID.TID 0000.0001) %MON vort_p_mean                  =  -2.1760535830104E-05
(PID.TID 0000.0001) %MON vort_p_sd                    =   9.7239972701323E-05
(PID.TID 0000.0001) %MON surfExpan_theta_mean         =   1.5733373674907E-07
(PID.TID 0000.0001) %MON surfExpan_salt_mean          =   2.2836174327956E-08
(PID.TID 0000.0001) // =======================================================
(PID.TID 0000.0001) // End MONITOR dynamic field statistics
(PID.TID 0000.0001) // =======================================================
(PID.TID 0000.0001) // =======================================================
(PID.TID 0000.0001) // Begin MONITOR SEAICE statistics
(PID.TID 0000.0001) // =======================================================
(PID.TID 0000.0001) %MON seaice_tsnumber              =                     4
(PID.TID 0000.0001) %MON seaice_time_sec              =   1.4400000000000E+04
(PID.TID 0000.0001) %MON seaice_uice_max              =   4.0000000000000E-01
(PID.TID 0000.0001) %MON seaice_uice_min              =  -4.0000000000000E-01
(PID.TID 0000.0001) %MON seaice_uice_mean             =   3.1910665240646E-03
(PID.TID 0000.0001) %MON seaice_uice_sd               =   1.8365599864519E-01
(PID.TID 0000.0001) %MON seaice_uice_del2             =   2.2031583356441E-04
(PID.TID 0000.0001) %MON seaice_vice_max              =   4.0000000000000E-01
(PID.TID 0000.0001) %MON seaice_vice_min              =  -4.0000000000000E-01
(PID.TID 0000.0001) %MON seaice_vice_mean             =  -8.0810269481622E-03
(PID.TID 0000.0001) %MON seaice_vice_sd               =   1.8948391331062E-01
(PID.TID 0000.0001) %MON seaice_vice_del2             =   2.2436070336612E-04
(PID.TID 0000.0001) %MON seaice_area_max              =   9.7000000000000E-01
(PID.TID 0000.0001) %MON seaice_area_min              =   0.0000000000000E+00
(PID.TID 0000.0001) %MON seaice_area_mean             =   3.9461116444014E-02
(PID.TID 0000.0001) %MON seaice_area_sd               =   1.7988895502391E-01
(PID.TID 0000.0001) %MON seaice_area_del2             =   2.6862827283717E-04
(PID.TID 0000.0001) %MON seaice_heff_max              =   3.8228461174181E+00
(PID.TID 0000.0001) %MON seaice_heff_min              =   0.0000000000000E+00
(PID.TID 0000.0001) %MON seaice_heff_mean             =   5.3418201726020E-02
(PID.TID 0000.0001) %MON seaice_heff_sd               =   3.0476974081282E-01
(PID.TID 0000.0001) %MON seaice_heff_del2             =   2.9045355290390E-04
(PID.TID 0000.0001) %MON seaice_hsnow_max             =   8.2319652312391E-01
(PID.TID 0000.0001) %MON seaice_hsnow_min             =  -8.6736173798840E-19
(PID.TID 0000.0001) %MON seaice_hsnow_mean            =   5.2482394816566E-03
(PID.TID 0000.0001) %MON seaice_hsnow_sd              =   3.1450119650303E-02
(PID.TID 0000.0001) %MON seaice_hsnow_del2            =   5.4612943328612E-05
(PID.TID 0000.0001) // =======================================================
(PID.TID 0000.0001) // End MONITOR SEAICE statistics
(PID.TID 0000.0001) // =======================================================
(PID.TID 0000.0001) // =======================================================
(PID.TID 0000.0001) // Begin MONITOR EXF statistics
(PID.TID 0000.0001) // =======================================================
(PID.TID 0000.0001) %MON exf_tsnumber                 =                     4
(PID.TID 0000.0001) %MON exf_time_sec                 =   1.4400000000000E+04
(PID.TID 0000.0001) %MON exf_ustress_max              =   3.3380149634354E+00
(PID.TID 0000.0001) %MON exf_ustress_min              =  -1.7017335287083E+00
(PID.TID 0000.0001) %MON exf_ustress_mean             =   1.4027215030548E-02
(PID.TID 0000.0001) %MON exf_ustress_sd               =   1.0893692400480E-01
(PID.TID 0000.0001) %MON exf_ustress_del2             =   1.1804226828388E-04
(PID.TID 0000.0001) %MON exf_vstress_max              =   1.5628723873140E+00
(PID.TID 0000.0001) %MON exf_vstress_min              =  -6.2638629418592E-01
(PID.TID 0000.0001) %MON exf_vstress_mean             =   3.8739079370912E-03
(PID.TID 0000.0001) %MON exf_vstress_sd               =   1.1469991562767E-01
(PID.TID 0000.0001) %MON exf_vstress_del2             =   8.8335678507370E-05
(PID.TID 0000.0001) %MON exf_hflux_max                =   1.5515538638481E+03
(PID.TID 0000.0001) %MON exf_hflux_min                =  -7.4976339628412E+02
(PID.TID 0000.0001) %MON exf_hflux_mean               =   2.0414188579326E+00
(PID.TID 0000.0001) %MON exf_hflux_sd                 =   2.5863784300228E+02
(PID.TID 0000.0001) %MON exf_hflux_del2               =   4.3488049287590E-01
(PID.TID 0000.0001) %MON exf_sflux_max                =   2.0385390960054E-07
(PID.TID 0000.0001) %MON exf_sflux_min                =  -2.3132705873887E-06
(PID.TID 0000.0001) %MON exf_sflux_mean               =   3.9998840247105E-09
(PID.TID 0000.0001) %MON exf_sflux_sd                 =   8.8126900001586E-08
(PID.TID 0000.0001) %MON exf_sflux_del2               =   2.3232661760365E-10
(PID.TID 0000.0001) %MON exf_wspeed_max               =   2.8848542238091E+01
(PID.TID 0000.0001) %MON exf_wspeed_min               =   3.3040566798063E-01
(PID.TID 0000.0001) %MON exf_wspeed_mean              =   7.0151300912066E+00
(PID.TID 0000.0001) %MON exf_wspeed_sd                =   3.1481047999403E+00
(PID.TID 0000.0001) %MON exf_wspeed_del2              =   1.2195742686288E-02
(PID.TID 0000.0001) %MON exf_atemp_max                =   3.0400416249038E+02
(PID.TID 0000.0001) %MON exf_atemp_min                =   2.3365934058759E+02
(PID.TID 0000.0001) %MON exf_atemp_mean               =   2.8930353828004E+02
(PID.TID 0000.0001) %MON exf_atemp_sd                 =   1.2229108191036E+01
(PID.TID 0000.0001) %MON exf_atemp_del2               =   2.6497245567336E-02
(PID.TID 0000.0001) %MON exf_aqh_max                  =   2.2208045947558E-02
(PID.TID 0000.0001) %MON exf_aqh_min                  =   9.5951671439757E-05
(PID.TID 0000.0001) %MON exf_aqh_mean                 =   1.1055539123253E-02
(PID.TID 0000.0001) %MON exf_aqh_sd                   =   5.7073963366029E-03
(PID.TID 0000.0001) %MON exf_aqh_del2                 =   1.4901468161263E-05
(PID.TID 0000.0001) %MON exf_lwflux_max               =   2.2993503434651E+02
(PID.TID 0000.0001) %MON exf_lwflux_min               =  -1.3822495777640E+01
(PID.TID 0000.0001) %MON exf_lwflux_mean              =   5.8178139613357E+01
(PID.TID 0000.0001) %MON exf_lwflux_sd                =   2.8879626663096E+01
(PID.TID 0000.0001) %MON exf_lwflux_del2              =   1.0827251068805E-01
(PID.TID 0000.0001) %MON exf_evap_max                 =   2.2341541638877E-07
(PID.TID 0000.0001) %MON exf_evap_min                 =  -3.4203555722264E-08
(PID.TID 0000.0001) %MON exf_evap_mean                =   4.3506034027077E-08
(PID.TID 0000.0001) %MON exf_evap_sd                  =   2.8634159872623E-08
(PID.TID 0000.0001) %MON exf_evap_del2                =   7.0412450958571E-11
(PID.TID 0000.0001) %MON exf_precip_max               =   2.3634510524544E-06
(PID.TID 0000.0001) %MON exf_precip_min               =   0.0000000000000E+00
(PID.TID 0000.0001) %MON exf_precip_mean              =   3.6461002487747E-08
(PID.TID 0000.0001) %MON exf_precip_sd                =   7.6871142466476E-08
(PID.TID 0000.0001) %MON exf_precip_del2              =   2.2844924475069E-10
(PID.TID 0000.0001) %MON exf_swflux_max               =  -0.0000000000000E+00
(PID.TID 0000.0001) %MON exf_swflux_min               =  -8.1497703549041E+02
(PID.TID 0000.0001) %MON exf_swflux_mean              =  -1.9315247013956E+02
(PID.TID 0000.0001) %MON exf_swflux_sd                =   2.0779877891980E+02
(PID.TID 0000.0001) %MON exf_swflux_del2              =   3.8479647477519E-01
(PID.TID 0000.0001) %MON exf_swdown_max               =   8.7888501478755E+02
(PID.TID 0000.0001) %MON exf_swdown_min               =   0.0000000000000E+00
(PID.TID 0000.0001) %MON exf_swdown_mean              =   2.0956663964482E+02
(PID.TID 0000.0001) %MON exf_swdown_sd                =   2.2474003519277E+02
(PID.TID 0000.0001) %MON exf_swdown_del2              =   4.1817354343082E-01
(PID.TID 0000.0001) %MON exf_lwdown_max               =   4.4929667953572E+02
(PID.TID 0000.0001) %MON exf_lwdown_min               =   6.9627705799879E+01
(PID.TID 0000.0001) %MON exf_lwdown_mean              =   3.5321620896123E+02
(PID.TID 0000.0001) %MON exf_lwdown_sd                =   6.3715126919087E+01
(PID.TID 0000.0001) %MON exf_lwdown_del2              =   4.7497045960061E-01
(PID.TID 0000.0001) %MON exf_runoff_max               =   2.0276180741289E-06
(PID.TID 0000.0001) %MON exf_runoff_min               =   0.0000000000000E+00
(PID.TID 0000.0001) %MON exf_runoff_mean              =   3.0451475146199E-09
(PID.TID 0000.0001) %MON exf_runoff_sd                =   2.3876973943833E-08
(PID.TID 0000.0001) %MON exf_runoff_del2              =   1.8093691565159E-11
(PID.TID 0000.0001) // =======================================================
(PID.TID 0000.0001) // End MONITOR EXF statistics
(PID.TID 0000.0001) // =======================================================
 cg2d: Sum(rhs),rhsMax =   3.01036950130346E+00  1.09443701669866E+00
(PID.TID 0000.0001)      cg2d_init_res =   3.32213134550256E-01
(PID.TID 0000.0001)      cg2d_iters(min,last) =      -1      92
(PID.TID 0000.0001)      cg2d_last_res =   7.05928771128775E-06
(PID.TID 0000.0001) // =======================================================
(PID.TID 0000.0001) // Begin MONITOR dynamic field statistics
(PID.TID 0000.0001) // =======================================================
(PID.TID 0000.0001) %MON time_tsnumber                =                     5
(PID.TID 0000.0001) %MON time_secondsf                =   1.8000000000000E+04
(PID.TID 0000.0001) %MON dynstat_eta_max              =   1.3131623173104E+00
(PID.TID 0000.0001) %MON dynstat_eta_min              =  -4.5299531284190E+00
(PID.TID 0000.0001) %MON dynstat_eta_mean             =  -1.5331951863846E-03
(PID.TID 0000.0001) %MON dynstat_eta_sd               =   7.4445172394188E-01
(PID.TID 0000.0001) %MON dynstat_eta_del2             =   2.7716682777503E-04
(PID.TID 0000.0001) %MON dynstat_uvel_max             =   9.1773369880006E-01
(PID.TID 0000.0001) %MON dynstat_uvel_min             =  -7.2468578496904E-01
(PID.TID 0000.0001) %MON dynstat_uvel_mean            =   1.5205028188504E-03
(PID.TID 0000.0001) %MON dynstat_uvel_sd              =   2.1958966426208E-02
(PID.TID 0000.0001) %MON dynstat_uvel_del2            =   1.7005812768728E-05
(PID.TID 0000.0001) %MON dynstat_vvel_max             =   9.6615206497457E-01
(PID.TID 0000.0001) %MON dynstat_vvel_min             =  -9.4340042953140E-01
(PID.TID 0000.0001) %MON dynstat_vvel_mean            =   1.1479675193401E-03
(PID.TID 0000.0001) %MON dynstat_vvel_sd              =   2.3965055558530E-02
(PID.TID 0000.0001) %MON dynstat_vvel_del2            =   1.8286424093179E-05
(PID.TID 0000.0001) %MON dynstat_wvel_max             =   8.3013720828741E-04
(PID.TID 0000.0001) %MON dynstat_wvel_min             =  -1.1944397609536E-03
(PID.TID 0000.0001) %MON dynstat_wvel_mean            =  -2.2558033097481E-09
(PID.TID 0000.0001) %MON dynstat_wvel_sd              =   3.0334661027765E-05
(PID.TID 0000.0001) %MON dynstat_wvel_del2            =   3.4363209608216E-08
(PID.TID 0000.0001) %MON dynstat_theta_max            =   3.2617215975616E+01
(PID.TID 0000.0001) %MON dynstat_theta_min            =  -2.0421416949304E+00
(PID.TID 0000.0001) %MON dynstat_theta_mean           =   3.5905969022950E+00
(PID.TID 0000.0001) %MON dynstat_theta_sd             =   4.4365967896604E+00
(PID.TID 0000.0001) %MON dynstat_theta_del2           =   1.0873869798145E-04
(PID.TID 0000.0001) %MON dynstat_salt_max             =   4.0711520602497E+01
(PID.TID 0000.0001) %MON dynstat_salt_min             =   1.7456382055535E+01
(PID.TID 0000.0001) %MON dynstat_salt_mean            =   3.4725688800972E+01
(PID.TID 0000.0001) %MON dynstat_salt_sd              =   3.7887754042979E-01
(PID.TID 0000.0001) %MON dynstat_salt_del2            =   2.7071364463726E-05
(PID.TID 0000.0001) %MON forcing_qnet_max             =   8.8334870681279E+02
(PID.TID 0000.0001) %MON forcing_qnet_min             =  -7.4976339628412E+02
(PID.TID 0000.0001) %MON forcing_qnet_mean            =  -1.2722351000080E+01
(PID.TID 0000.0001) %MON forcing_qnet_sd              =   2.3478131566327E+02
(PID.TID 0000.0001) %MON forcing_qnet_del2            =   1.6136437946064E-01
(PID.TID 0000.0001) %MON forcing_qsw_max              =   0.0000000000000E+00
(PID.TID 0000.0001) %MON forcing_qsw_min              =  -8.1497703549041E+02
(PID.TID 0000.0001) %MON forcing_qsw_mean             =  -1.9118098620837E+02
(PID.TID 0000.0001) %MON forcing_qsw_sd               =   2.0644539470110E+02
(PID.TID 0000.0001) %MON forcing_qsw_del2             =   8.1499082782652E-02
(PID.TID 0000.0001) %MON forcing_empmr_max            =   2.3299051297602E-03
(PID.TID 0000.0001) %MON forcing_empmr_min            =  -2.3159442167476E-03
(PID.TID 0000.0001) %MON forcing_empmr_mean           =   9.5595818456591E-07
(PID.TID 0000.0001) %MON forcing_empmr_sd             =   1.1086856261238E-04
(PID.TID 0000.0001) %MON forcing_empmr_del2           =   4.8781524297543E-07
(PID.TID 0000.0001) %MON forcing_fu_max               =   1.7960612181076E+00
(PID.TID 0000.0001) %MON forcing_fu_min               =  -2.0572030232729E+00
(PID.TID 0000.0001) %MON forcing_fu_mean              =   1.4214375541484E-02
(PID.TID 0000.0001) %MON forcing_fu_sd                =   1.0703937918825E-01
(PID.TID 0000.0001) %MON forcing_fu_del2              =   9.4023757067353E-05
(PID.TID 0000.0001) %MON forcing_fv_max               =   1.3447743191057E+00
(PID.TID 0000.0001) %MON forcing_fv_min               =  -5.5561106389888E-01
(PID.TID 0000.0001) %MON forcing_fv_mean              =   3.9362566357039E-03
(PID.TID 0000.0001) %MON forcing_fv_sd                =   1.1370733286889E-01
(PID.TID 0000.0001) %MON forcing_fv_del2              =   8.1555666291122E-05
(PID.TID 0000.0001) %MON trAdv_CFL_u_max              =   6.5981759481634E-02
(PID.TID 0000.0001) %MON trAdv_CFL_v_max              =   8.5796570177954E-02
(PID.TID 0000.0001) %MON trAdv_CFL_w_max              =   2.8357583021145E-01
(PID.TID 0000.0001) %MON advcfl_uvel_max              =   5.9694115780178E-02
(PID.TID 0000.0001) %MON advcfl_vvel_max              =   8.5618198705605E-02
(PID.TID 0000.0001) %MON advcfl_wvel_max              =   2.8549256611067E-01
(PID.TID 0000.0001) %MON advcfl_W_hf_max              =   2.8664468136381E-01
(PID.TID 0000.0001) %MON pe_b_mean                    =   4.3826410710819E-04
(PID.TID 0000.0001) %MON ke_max                       =   4.6607916146086E-01
(PID.TID 0000.0001) %MON ke_mean                      =   5.1120072894152E-04
(PID.TID 0000.0001) %MON ke_vol                       =   1.3349973292315E+18
(PID.TID 0000.0001) %MON vort_r_min                   =  -2.8604606973818E-05
(PID.TID 0000.0001) %MON vort_r_max                   =   3.3562178126116E-05
(PID.TID 0000.0001) %MON vort_a_mean                  =  -1.9727864647440E-05
(PID.TID 0000.0001) %MON vort_a_sd                    =   7.4543397941022E-05
(PID.TID 0000.0001) %MON vort_p_mean                  =  -2.1760535890718E-05
(PID.TID 0000.0001) %MON vort_p_sd                    =   9.7240168587665E-05
(PID.TID 0000.0001) %MON surfExpan_theta_mean         =   1.0976634337681E-07
(PID.TID 0000.0001) %MON surfExpan_salt_mean          =   3.0634711412618E-08
(PID.TID 0000.0001) // =======================================================
(PID.TID 0000.0001) // End MONITOR dynamic field statistics
(PID.TID 0000.0001) // =======================================================
(PID.TID 0000.0001) // =======================================================
(PID.TID 0000.0001) // Begin MONITOR SEAICE statistics
(PID.TID 0000.0001) // =======================================================
(PID.TID 0000.0001) %MON seaice_tsnumber              =                     5
(PID.TID 0000.0001) %MON seaice_time_sec              =   1.8000000000000E+04
(PID.TID 0000.0001) %MON seaice_uice_max              =   4.0000000000000E-01
(PID.TID 0000.0001) %MON seaice_uice_min              =  -4.0000000000000E-01
(PID.TID 0000.0001) %MON seaice_uice_mean             =   4.7604593404722E-03
(PID.TID 0000.0001) %MON seaice_uice_sd               =   1.8735660988961E-01
(PID.TID 0000.0001) %MON seaice_uice_del2             =   2.1459925307607E-04
(PID.TID 0000.0001) %MON seaice_vice_max              =   4.0000000000000E-01
(PID.TID 0000.0001) %MON seaice_vice_min              =  -4.0000000000000E-01
(PID.TID 0000.0001) %MON seaice_vice_mean             =  -8.5219375756256E-03
(PID.TID 0000.0001) %MON seaice_vice_sd               =   1.9350086474634E-01
(PID.TID 0000.0001) %MON seaice_vice_del2             =   2.1907583337223E-04
(PID.TID 0000.0001) %MON seaice_area_max              =   9.7000000000000E-01
(PID.TID 0000.0001) %MON seaice_area_min              =   0.0000000000000E+00
(PID.TID 0000.0001) %MON seaice_area_mean             =   3.9441235194611E-02
(PID.TID 0000.0001) %MON seaice_area_sd               =   1.7993286837303E-01
(PID.TID 0000.0001) %MON seaice_area_del2             =   2.6932762429921E-04
(PID.TID 0000.0001) %MON seaice_heff_max              =   3.8231867900971E+00
(PID.TID 0000.0001) %MON seaice_heff_min              =   0.0000000000000E+00
(PID.TID 0000.0001) %MON seaice_heff_mean             =   5.3423017873264E-02
(PID.TID 0000.0001) %MON seaice_heff_sd               =   3.0482887442345E-01
(PID.TID 0000.0001) %MON seaice_heff_del2             =   2.8807973064419E-04
(PID.TID 0000.0001) %MON seaice_hsnow_max             =   8.3630322455165E-01
(PID.TID 0000.0001) %MON seaice_hsnow_min             =  -4.3368086899420E-19
(PID.TID 0000.0001) %MON seaice_hsnow_mean            =   5.2453872255122E-03
(PID.TID 0000.0001) %MON seaice_hsnow_sd              =   3.1444436462224E-02
(PID.TID 0000.0001) %MON seaice_hsnow_del2            =   5.4180595715314E-05
(PID.TID 0000.0001) // =======================================================
(PID.TID 0000.0001) // End MONITOR SEAICE statistics
(PID.TID 0000.0001) // =======================================================
(PID.TID 0000.0001) // =======================================================
(PID.TID 0000.0001) // Begin MONITOR EXF statistics
(PID.TID 0000.0001) // =======================================================
(PID.TID 0000.0001) %MON exf_tsnumber                 =                     5
(PID.TID 0000.0001) %MON exf_time_sec                 =   1.8000000000000E+04
(PID.TID 0000.0001) %MON exf_ustress_max              =   2.9084705694461E+00
(PID.TID 0000.0001) %MON exf_ustress_min              =  -1.7518847793118E+00
(PID.TID 0000.0001) %MON exf_ustress_mean             =   1.3856031160471E-02
(PID.TID 0000.0001) %MON exf_ustress_sd               =   1.0670617392684E-01
(PID.TID 0000.0001) %MON exf_ustress_del2             =   1.1100851420860E-04
(PID.TID 0000.0001) %MON exf_vstress_max              =   1.5485072505046E+00
(PID.TID 0000.0001) %MON exf_vstress_min              =  -6.2405308705896E-01
(PID.TID 0000.0001) %MON exf_vstress_mean             =   3.7899366864812E-03
(PID.TID 0000.0001) %MON exf_vstress_sd               =   1.1419459236811E-01
(PID.TID 0000.0001) %MON exf_vstress_del2             =   8.4517337306647E-05
(PID.TID 0000.0001) %MON exf_hflux_max                =   1.4744368212316E+03
(PID.TID 0000.0001) %MON exf_hflux_min                =  -6.3179159278407E+02
(PID.TID 0000.0001) %MON exf_hflux_mean               =  -2.2895955613087E+00
(PID.TID 0000.0001) %MON exf_hflux_sd                 =   2.4227036673416E+02
(PID.TID 0000.0001) %MON exf_hflux_del2               =   4.1858755111322E-01
(PID.TID 0000.0001) %MON exf_sflux_max                =   2.0629923732466E-07
(PID.TID 0000.0001) %MON exf_sflux_min                =  -2.4397200922157E-06
(PID.TID 0000.0001) %MON exf_sflux_mean               =   3.7899905293711E-09
(PID.TID 0000.0001) %MON exf_sflux_sd                 =   8.7046033838394E-08
(PID.TID 0000.0001) %MON exf_sflux_del2               =   2.2142628932251E-10
(PID.TID 0000.0001) %MON exf_wspeed_max               =   2.6673869324057E+01
(PID.TID 0000.0001) %MON exf_wspeed_min               =   4.1954436301909E-01
(PID.TID 0000.0001) %MON exf_wspeed_mean              =   6.9945169749291E+00
(PID.TID 0000.0001) %MON exf_wspeed_sd                =   3.1047136956176E+00
(PID.TID 0000.0001) %MON exf_wspeed_del2              =   1.2064847613788E-02
(PID.TID 0000.0001) %MON exf_atemp_max                =   3.0333973370989E+02
(PID.TID 0000.0001) %MON exf_atemp_min                =   2.3334933796026E+02
(PID.TID 0000.0001) %MON exf_atemp_mean               =   2.8930313562681E+02
(PID.TID 0000.0001) %MON exf_atemp_sd                 =   1.2233052526100E+01
(PID.TID 0000.0001) %MON exf_atemp_del2               =   2.6509980275876E-02
(PID.TID 0000.0001) %MON exf_aqh_max                  =   2.1981545709646E-02
(PID.TID 0000.0001) %MON exf_aqh_min                  =   9.6985808374021E-05
(PID.TID 0000.0001) %MON exf_aqh_mean                 =   1.1038438655604E-02
(PID.TID 0000.0001) %MON exf_aqh_sd                   =   5.6937182364123E-03
(PID.TID 0000.0001) %MON exf_aqh_del2                 =   1.4865810313694E-05
(PID.TID 0000.0001) %MON exf_lwflux_max               =   2.3009506304395E+02
(PID.TID 0000.0001) %MON exf_lwflux_min               =  -1.3514913453004E+01
(PID.TID 0000.0001) %MON exf_lwflux_mean              =   5.8169628087504E+01
(PID.TID 0000.0001) %MON exf_lwflux_sd                =   2.8629587484104E+01
(PID.TID 0000.0001) %MON exf_lwflux_del2              =   1.0815736494437E-01
(PID.TID 0000.0001) %MON exf_evap_max                 =   2.2579313644298E-07
(PID.TID 0000.0001) %MON exf_evap_min                 =  -3.2883358292584E-08
(PID.TID 0000.0001) %MON exf_evap_mean                =   4.3502747113707E-08
(PID.TID 0000.0001) %MON exf_evap_sd                  =   2.8283228414281E-08
(PID.TID 0000.0001) %MON exf_evap_del2                =   6.9730045340337E-11
(PID.TID 0000.0001) %MON exf_precip_max               =   2.4886747942940E-06
(PID.TID 0000.0001) %MON exf_precip_min               =   0.0000000000000E+00
(PID.TID 0000.0001) %MON exf_precip_mean              =   3.6668061282529E-08
(PID.TID 0000.0001) %MON exf_precip_sd                =   7.5706629446418E-08
(PID.TID 0000.0001) %MON exf_precip_del2              =   2.1712309456787E-10
(PID.TID 0000.0001) %MON exf_swflux_max               =  -0.0000000000000E+00
(PID.TID 0000.0001) %MON exf_swflux_min               =  -7.5483533497909E+02
(PID.TID 0000.0001) %MON exf_swflux_mean              =  -1.9739478654691E+02
(PID.TID 0000.0001) %MON exf_swflux_sd                =   1.8569229818654E+02
(PID.TID 0000.0001) %MON exf_swflux_del2              =   3.7124621844949E-01
(PID.TID 0000.0001) %MON exf_swdown_max               =   8.1418608510460E+02
(PID.TID 0000.0001) %MON exf_swdown_min               =   0.0000000000000E+00
(PID.TID 0000.0001) %MON exf_swdown_mean              =   2.1415489713533E+02
(PID.TID 0000.0001) %MON exf_swdown_sd                =   2.0068855961886E+02
(PID.TID 0000.0001) %MON exf_swdown_del2              =   4.0341100491513E-01
(PID.TID 0000.0001) %MON exf_lwdown_max               =   4.4911107843031E+02
(PID.TID 0000.0001) %MON exf_lwdown_min               =   6.9462734930417E+01
(PID.TID 0000.0001) %MON exf_lwdown_mean              =   3.5322764283105E+02
(PID.TID 0000.0001) %MON exf_lwdown_sd                =   6.3568791306421E+01
(PID.TID 0000.0001) %MON exf_lwdown_del2              =   4.7465016293237E-01
(PID.TID 0000.0001) %MON exf_runoff_max               =   2.0291951535279E-06
(PID.TID 0000.0001) %MON exf_runoff_min               =   0.0000000000000E+00
(PID.TID 0000.0001) %MON exf_runoff_mean              =   3.0446953018068E-09
(PID.TID 0000.0001) %MON exf_runoff_sd                =   2.3891578254633E-08
(PID.TID 0000.0001) %MON exf_runoff_del2              =   1.8098854208945E-11
(PID.TID 0000.0001) // =======================================================
(PID.TID 0000.0001) // End MONITOR EXF statistics
(PID.TID 0000.0001) // =======================================================
 cg2d: Sum(rhs),rhsMax =   3.01123698530932E+00  1.08987441748664E+00
(PID.TID 0000.0001)      cg2d_init_res =   3.28364955361420E-01
(PID.TID 0000.0001)      cg2d_iters(min,last) =      -1      92
(PID.TID 0000.0001)      cg2d_last_res =   6.70987508246740E-06
(PID.TID 0000.0001) // =======================================================
(PID.TID 0000.0001) // Begin MONITOR dynamic field statistics
(PID.TID 0000.0001) // =======================================================
(PID.TID 0000.0001) %MON time_tsnumber                =                     6
(PID.TID 0000.0001) %MON time_secondsf                =   2.1600000000000E+04
(PID.TID 0000.0001) %MON dynstat_eta_max              =   1.2955470977964E+00
(PID.TID 0000.0001) %MON dynstat_eta_min              =  -4.5314452252826E+00
(PID.TID 0000.0001) %MON dynstat_eta_mean             =  -1.5369994182364E-03
(PID.TID 0000.0001) %MON dynstat_eta_sd               =   7.4455341694601E-01
(PID.TID 0000.0001) %MON dynstat_eta_del2             =   2.7478657218792E-04
(PID.TID 0000.0001) %MON dynstat_uvel_max             =   8.6760085585650E-01
(PID.TID 0000.0001) %MON dynstat_uvel_min             =  -7.3644989266951E-01
(PID.TID 0000.0001) %MON dynstat_uvel_mean            =   1.5188484197264E-03
(PID.TID 0000.0001) %MON dynstat_uvel_sd              =   2.1978010828242E-02
(PID.TID 0000.0001) %MON dynstat_uvel_del2            =   1.6574474122070E-05
(PID.TID 0000.0001) %MON dynstat_vvel_max             =   9.7383031967787E-01
(PID.TID 0000.0001) %MON dynstat_vvel_min             =  -9.4223636551493E-01
(PID.TID 0000.0001) %MON dynstat_vvel_mean            =   1.1568585460294E-03
(PID.TID 0000.0001) %MON dynstat_vvel_sd              =   2.3960122058192E-02
(PID.TID 0000.0001) %MON dynstat_vvel_del2            =   1.7812604153598E-05
(PID.TID 0000.0001) %MON dynstat_wvel_max             =   7.4424519871319E-04
(PID.TID 0000.0001) %MON dynstat_wvel_min             =  -1.2282868911671E-03
(PID.TID 0000.0001) %MON dynstat_wvel_mean            =  -6.0924255598464E-09
(PID.TID 0000.0001) %MON dynstat_wvel_sd              =   3.0260388463578E-05
(PID.TID 0000.0001) %MON dynstat_wvel_del2            =   3.3781428879509E-08
(PID.TID 0000.0001) %MON dynstat_theta_max            =   3.2605631432599E+01
(PID.TID 0000.0001) %MON dynstat_theta_min            =  -2.0421583298875E+00
(PID.TID 0000.0001) %MON dynstat_theta_mean           =   3.5906009719454E+00
(PID.TID 0000.0001) %MON dynstat_theta_sd             =   4.4365936538743E+00
(PID.TID 0000.0001) %MON dynstat_theta_del2           =   1.0862493486531E-04
(PID.TID 0000.0001) %MON dynstat_salt_max             =   4.0711518357461E+01
(PID.TID 0000.0001) %MON dynstat_salt_min             =   1.7455628111581E+01
(PID.TID 0000.0001) %MON dynstat_salt_mean            =   3.4725688821354E+01
(PID.TID 0000.0001) %MON dynstat_salt_sd              =   3.7887712612201E-01
(PID.TID 0000.0001) %MON dynstat_salt_del2            =   2.7009011148446E-05
(PID.TID 0000.0001) %MON forcing_qnet_max             =   8.9794468026101E+02
(PID.TID 0000.0001) %MON forcing_qnet_min             =  -6.3179159278407E+02
(PID.TID 0000.0001) %MON forcing_qnet_mean            =  -1.7100779465252E+01
(PID.TID 0000.0001) %MON forcing_qnet_sd              =   2.1651155434278E+02
(PID.TID 0000.0001) %MON forcing_qnet_del2            =   1.5788972059164E-01
(PID.TID 0000.0001) %MON forcing_qsw_max              =   0.0000000000000E+00
(PID.TID 0000.0001) %MON forcing_qsw_min              =  -7.5483533497909E+02
(PID.TID 0000.0001) %MON forcing_qsw_mean             =  -1.9541221350167E+02
(PID.TID 0000.0001) %MON forcing_qsw_sd               =   1.8461243679628E+02
(PID.TID 0000.0001) %MON forcing_qsw_del2             =   7.8738821448750E-02
(PID.TID 0000.0001) %MON forcing_empmr_max            =   2.3130488097373E-03
(PID.TID 0000.0001) %MON forcing_empmr_min            =  -2.4421814604219E-03
(PID.TID 0000.0001) %MON forcing_empmr_mean           =   1.0873762709490E-06
(PID.TID 0000.0001) %MON forcing_empmr_sd             =   1.0911650181758E-04
(PID.TID 0000.0001) %MON forcing_empmr_del2           =   4.8156837110491E-07
(PID.TID 0000.0001) %MON forcing_fu_max               =   1.6894211155033E+00
(PID.TID 0000.0001) %MON forcing_fu_min               =  -2.0067009872330E+00
(PID.TID 0000.0001) %MON forcing_fu_mean              =   1.4060605563818E-02
(PID.TID 0000.0001) %MON forcing_fu_sd                =   1.0490236915988E-01
(PID.TID 0000.0001) %MON forcing_fu_del2              =   8.9659937383849E-05
(PID.TID 0000.0001) %MON forcing_fv_max               =   1.3394247024138E+00
(PID.TID 0000.0001) %MON forcing_fv_min               =  -5.5328358124052E-01
(PID.TID 0000.0001) %MON forcing_fv_mean              =   3.8403696139196E-03
(PID.TID 0000.0001) %MON forcing_fv_sd                =   1.1326784201824E-01
(PID.TID 0000.0001) %MON forcing_fv_del2              =   7.8021388411997E-05
(PID.TID 0000.0001) %MON trAdv_CFL_u_max              =   6.7976238060108E-02
(PID.TID 0000.0001) %MON trAdv_CFL_v_max              =   8.3017571288489E-02
(PID.TID 0000.0001) %MON trAdv_CFL_w_max              =   2.6285568843949E-01
(PID.TID 0000.0001) %MON advcfl_uvel_max              =   6.1646705292244E-02
(PID.TID 0000.0001) %MON advcfl_vvel_max              =   8.2844740068655E-02
(PID.TID 0000.0001) %MON advcfl_wvel_max              =   2.6485634419528E-01
(PID.TID 0000.0001) %MON advcfl_W_hf_max              =   2.6592453210046E-01
(PID.TID 0000.0001) %MON pe_b_mean                    =   4.3812157891547E-04
(PID.TID 0000.0001) %MON ke_max                       =   4.7437360685736E-01
(PID.TID 0000.0001) %MON ke_mean                      =   5.1149756870318E-04
(PID.TID 0000.0001) %MON ke_vol                       =   1.3349973280342E+18
(PID.TID 0000.0001) %MON vort_r_min                   =  -2.9391228882292E-05
(PID.TID 0000.0001) %MON vort_r_max                   =   3.1980340443750E-05
(PID.TID 0000.0001) %MON vort_a_mean                  =  -1.9727864647440E-05
(PID.TID 0000.0001) %MON vort_a_sd                    =   7.4543385133492E-05
(PID.TID 0000.0001) %MON vort_p_mean                  =  -2.1760535934364E-05
(PID.TID 0000.0001) %MON vort_p_sd                    =   9.7240320332765E-05
(PID.TID 0000.0001) %MON surfExpan_theta_mean         =   4.9796907559785E-08
(PID.TID 0000.0001) %MON surfExpan_salt_mean          =   4.1434034003421E-08
(PID.TID 0000.0001) // =======================================================
(PID.TID 0000.0001) // End MONITOR dynamic field statistics
(PID.TID 0000.0001) // =======================================================
(PID.TID 0000.0001) // =======================================================
(PID.TID 0000.0001) // Begin MONITOR SEAICE statistics
(PID.TID 0000.0001) // =======================================================
(PID.TID 0000.0001) %MON seaice_tsnumber              =                     6
(PID.TID 0000.0001) %MON seaice_time_sec              =   2.1600000000000E+04
(PID.TID 0000.0001) %MON seaice_uice_max              =   4.0000000000000E-01
(PID.TID 0000.0001) %MON seaice_uice_min              =  -4.0000000000000E-01
(PID.TID 0000.0001) %MON seaice_uice_mean             =   5.5720187518587E-03
(PID.TID 0000.0001) %MON seaice_uice_sd               =   1.8884423019508E-01
(PID.TID 0000.0001) %MON seaice_uice_del2             =   2.1046316548885E-04
(PID.TID 0000.0001) %MON seaice_vice_max              =   4.0000000000000E-01
(PID.TID 0000.0001) %MON seaice_vice_min              =  -4.0000000000000E-01
(PID.TID 0000.0001) %MON seaice_vice_mean             =  -9.0071439244356E-03
(PID.TID 0000.0001) %MON seaice_vice_sd               =   1.9554284675858E-01
(PID.TID 0000.0001) %MON seaice_vice_del2             =   2.1525820115891E-04
(PID.TID 0000.0001) %MON seaice_area_max              =   9.7000000000000E-01
(PID.TID 0000.0001) %MON seaice_area_min              =   0.0000000000000E+00
(PID.TID 0000.0001) %MON seaice_area_mean             =   3.9430813499326E-02
(PID.TID 0000.0001) %MON seaice_area_sd               =   1.7998683866514E-01
(PID.TID 0000.0001) %MON seaice_area_del2             =   2.7079237885863E-04
(PID.TID 0000.0001) %MON seaice_heff_max              =   3.8235293926846E+00
(PID.TID 0000.0001) %MON seaice_heff_min              =   0.0000000000000E+00
(PID.TID 0000.0001) %MON seaice_heff_mean             =   5.3428065121126E-02
(PID.TID 0000.0001) %MON seaice_heff_sd               =   3.0488346477367E-01
(PID.TID 0000.0001) %MON seaice_heff_del2             =   2.8582037245267E-04
(PID.TID 0000.0001) %MON seaice_hsnow_max             =   8.4878000166564E-01
(PID.TID 0000.0001) %MON seaice_hsnow_min             =  -2.1684043449710E-19
(PID.TID 0000.0001) %MON seaice_hsnow_mean            =   5.2433313437556E-03
(PID.TID 0000.0001) %MON seaice_hsnow_sd              =   3.1439868231700E-02
(PID.TID 0000.0001) %MON seaice_hsnow_del2            =   5.3782528554149E-05
(PID.TID 0000.0001) // =======================================================
(PID.TID 0000.0001) // End MONITOR SEAICE statistics
(PID.TID 0000.0001) // =======================================================
(PID.TID 0000.0001) // =======================================================
(PID.TID 0000.0001) // Begin MONITOR EXF statistics
(PID.TID 0000.0001) // =======================================================
(PID.TID 0000.0001) %MON exf_tsnumber                 =                     6
(PID.TID 0000.0001) %MON exf_time_sec                 =   2.1600000000000E+04
(PID.TID 0000.0001) %MON exf_ustress_max              =   2.4789261754567E+00
(PID.TID 0000.0001) %MON exf_ustress_min              =  -1.8020360299154E+00
(PID.TID 0000.0001) %MON exf_ustress_mean             =   1.3684847290395E-02
(PID.TID 0000.0001) %MON exf_ustress_sd               =   1.0525877043320E-01
(PID.TID 0000.0001) %MON exf_ustress_del2             =   1.0647835703487E-04
(PID.TID 0000.0001) %MON exf_vstress_max              =   1.5341421136953E+00
(PID.TID 0000.0001) %MON exf_vstress_min              =  -6.2171987993199E-01
(PID.TID 0000.0001) %MON exf_vstress_mean             =   3.7059654358712E-03
(PID.TID 0000.0001) %MON exf_vstress_sd               =   1.1436697477044E-01
(PID.TID 0000.0001) %MON exf_vstress_del2             =   8.3750275518406E-05
(PID.TID 0000.0001) %MON exf_hflux_max                =   1.3990131740850E+03
(PID.TID 0000.0001) %MON exf_hflux_min                =  -6.0113438714418E+02
(PID.TID 0000.0001) %MON exf_hflux_mean               =  -6.5736733425643E+00
(PID.TID 0000.0001) %MON exf_hflux_sd                 =   2.3836228271450E+02
(PID.TID 0000.0001) %MON exf_hflux_del2               =   4.1622390383737E-01
(PID.TID 0000.0001) %MON exf_sflux_max                =   2.0862031861066E-07
(PID.TID 0000.0001) %MON exf_sflux_min                =  -2.5668660502712E-06
(PID.TID 0000.0001) %MON exf_sflux_mean               =   3.5890071996711E-09
(PID.TID 0000.0001) %MON exf_sflux_sd                 =   8.7493137620972E-08
(PID.TID 0000.0001) %MON exf_sflux_del2               =   2.2122766400621E-10
(PID.TID 0000.0001) %MON exf_wspeed_max               =   2.4499196410023E+01
(PID.TID 0000.0001) %MON exf_wspeed_min               =   4.3180892612649E-01
(PID.TID 0000.0001) %MON exf_wspeed_mean              =   6.9739038586515E+00
(PID.TID 0000.0001) %MON exf_wspeed_sd                =   3.0845765942529E+00
(PID.TID 0000.0001) %MON exf_wspeed_del2              =   1.1991515707077E-02
(PID.TID 0000.0001) %MON exf_atemp_max                =   3.0365403274991E+02
(PID.TID 0000.0001) %MON exf_atemp_min                =   2.3303933533294E+02
(PID.TID 0000.0001) %MON exf_atemp_mean               =   2.8930273297358E+02
(PID.TID 0000.0001) %MON exf_atemp_sd                 =   1.2238734735112E+01
(PID.TID 0000.0001) %MON exf_atemp_del2               =   2.6527688189885E-02
(PID.TID 0000.0001) %MON exf_aqh_max                  =   2.1966258823715E-02
(PID.TID 0000.0001) %MON exf_aqh_min                  =   9.8019945308285E-05
(PID.TID 0000.0001) %MON exf_aqh_mean                 =   1.1021338187955E-02
(PID.TID 0000.0001) %MON exf_aqh_sd                   =   5.6818665029210E-03
(PID.TID 0000.0001) %MON exf_aqh_del2                 =   1.4836281822693E-05
(PID.TID 0000.0001) %MON exf_lwflux_max               =   2.3025509150153E+02
(PID.TID 0000.0001) %MON exf_lwflux_min               =  -1.3202910907584E+01
(PID.TID 0000.0001) %MON exf_lwflux_mean              =   5.8161372860941E+01
(PID.TID 0000.0001) %MON exf_lwflux_sd                =   2.8527309480603E+01
(PID.TID 0000.0001) %MON exf_lwflux_del2              =   1.0829844046926E-01
(PID.TID 0000.0001) %MON exf_evap_max                 =   2.2804661005908E-07
(PID.TID 0000.0001) %MON exf_evap_min                 =  -3.2282755144496E-08
(PID.TID 0000.0001) %MON exf_evap_mean                =   4.3508370365975E-08
(PID.TID 0000.0001) %MON exf_evap_sd                  =   2.8082897870070E-08
(PID.TID 0000.0001) %MON exf_evap_del2                =   6.9443848290617E-11
(PID.TID 0000.0001) %MON exf_precip_max               =   2.6138985361336E-06
(PID.TID 0000.0001) %MON exf_precip_min               =   0.0000000000000E+00
(PID.TID 0000.0001) %MON exf_precip_mean              =   3.6875120077310E-08
(PID.TID 0000.0001) %MON exf_precip_sd                =   7.6190254829497E-08
(PID.TID 0000.0001) %MON exf_precip_del2              =   2.1640335639911E-10
(PID.TID 0000.0001) %MON exf_swflux_max               =  -0.0000000000000E+00
(PID.TID 0000.0001) %MON exf_swflux_min               =  -7.2856876703622E+02
(PID.TID 0000.0001) %MON exf_swflux_mean              =  -2.0163711103820E+02
(PID.TID 0000.0001) %MON exf_swflux_sd                =   1.7901178811210E+02
(PID.TID 0000.0001) %MON exf_swflux_del2              =   3.7273649335077E-01
(PID.TID 0000.0001) %MON exf_swdown_max               =   7.8611908379341E+02
(PID.TID 0000.0001) %MON exf_swdown_min               =   0.0000000000000E+00
(PID.TID 0000.0001) %MON exf_swdown_mean              =   2.1874315462585E+02
(PID.TID 0000.0001) %MON exf_swdown_sd                =   1.9335746568781E+02
(PID.TID 0000.0001) %MON exf_swdown_del2              =   4.0492998515889E-01
(PID.TID 0000.0001) %MON exf_lwdown_max               =   4.4913545120398E+02
(PID.TID 0000.0001) %MON exf_lwdown_min               =   6.9297764060954E+01
(PID.TID 0000.0001) %MON exf_lwdown_mean              =   3.5323907670087E+02
(PID.TID 0000.0001) %MON exf_lwdown_sd                =   6.3494150802481E+01
(PID.TID 0000.0001) %MON exf_lwdown_del2              =   4.7439168987551E-01
(PID.TID 0000.0001) %MON exf_runoff_max               =   2.0307722329269E-06
(PID.TID 0000.0001) %MON exf_runoff_min               =   0.0000000000000E+00
(PID.TID 0000.0001) %MON exf_runoff_mean              =   3.0442430889937E-09
(PID.TID 0000.0001) %MON exf_runoff_sd                =   2.3906187182725E-08
(PID.TID 0000.0001) %MON exf_runoff_del2              =   1.8104023164270E-11
(PID.TID 0000.0001) // =======================================================
(PID.TID 0000.0001) // End MONITOR EXF statistics
(PID.TID 0000.0001) // =======================================================
 cg2d: Sum(rhs),rhsMax =   3.01331887035770E+00  1.08661842749350E+00
(PID.TID 0000.0001)      cg2d_init_res =   3.24939789284725E-01
(PID.TID 0000.0001)      cg2d_iters(min,last) =      -1      91
(PID.TID 0000.0001)      cg2d_last_res =   6.74173369554545E-06
(PID.TID 0000.0001) // =======================================================
(PID.TID 0000.0001) // Begin MONITOR dynamic field statistics
(PID.TID 0000.0001) // =======================================================
(PID.TID 0000.0001) %MON time_tsnumber                =                     7
(PID.TID 0000.0001) %MON time_secondsf                =   2.5200000000000E+04
(PID.TID 0000.0001) %MON dynstat_eta_max              =   1.2886080618934E+00
(PID.TID 0000.0001) %MON dynstat_eta_min              =  -4.5304563366300E+00
(PID.TID 0000.0001) %MON dynstat_eta_mean             =  -1.5411511331191E-03
(PID.TID 0000.0001) %MON dynstat_eta_sd               =   7.4462769644083E-01
(PID.TID 0000.0001) %MON dynstat_eta_del2             =   2.7262101699620E-04
(PID.TID 0000.0001) %MON dynstat_uvel_max             =   8.2758900212879E-01
(PID.TID 0000.0001) %MON dynstat_uvel_min             =  -7.2741356056887E-01
(PID.TID 0000.0001) %MON dynstat_uvel_mean            =   1.5155651835046E-03
(PID.TID 0000.0001) %MON dynstat_uvel_sd              =   2.1982156310281E-02
(PID.TID 0000.0001) %MON dynstat_uvel_del2            =   1.6211420861917E-05
(PID.TID 0000.0001) %MON dynstat_vvel_max             =   9.7969062923576E-01
(PID.TID 0000.0001) %MON dynstat_vvel_min             =  -9.4076933262944E-01
(PID.TID 0000.0001) %MON dynstat_vvel_mean            =   1.1660176571044E-03
(PID.TID 0000.0001) %MON dynstat_vvel_sd              =   2.3956872101439E-02
(PID.TID 0000.0001) %MON dynstat_vvel_del2            =   1.7414259540872E-05
(PID.TID 0000.0001) %MON dynstat_wvel_max             =   6.9084064021295E-04
(PID.TID 0000.0001) %MON dynstat_wvel_min             =  -1.2493033921966E-03
(PID.TID 0000.0001) %MON dynstat_wvel_mean            =  -9.1718025756508E-09
(PID.TID 0000.0001) %MON dynstat_wvel_sd              =   3.0336421545628E-05
(PID.TID 0000.0001) %MON dynstat_wvel_del2            =   3.3846011261692E-08
(PID.TID 0000.0001) %MON dynstat_theta_max            =   3.2594399428768E+01
(PID.TID 0000.0001) %MON dynstat_theta_min            =  -2.0421788278612E+00
(PID.TID 0000.0001) %MON dynstat_theta_mean           =   3.5906060563007E+00
(PID.TID 0000.0001) %MON dynstat_theta_sd             =   4.4365968663046E+00
(PID.TID 0000.0001) %MON dynstat_theta_del2           =   1.0849909724457E-04
(PID.TID 0000.0001) %MON dynstat_salt_max             =   4.0711516256021E+01
(PID.TID 0000.0001) %MON dynstat_salt_min             =   1.7454995390396E+01
(PID.TID 0000.0001) %MON dynstat_salt_mean            =   3.4725688846674E+01
(PID.TID 0000.0001) %MON dynstat_salt_sd              =   3.7887670853590E-01
(PID.TID 0000.0001) %MON dynstat_salt_del2            =   2.6942891659229E-05
(PID.TID 0000.0001) %MON forcing_qnet_max             =   9.1364399784173E+02
(PID.TID 0000.0001) %MON forcing_qnet_min             =  -6.0917164476209E+02
(PID.TID 0000.0001) %MON forcing_qnet_mean            =  -2.1422596944560E+01
(PID.TID 0000.0001) %MON forcing_qnet_sd              =   2.1189844797561E+02
(PID.TID 0000.0001) %MON forcing_qnet_del2            =   1.5487131948969E-01
(PID.TID 0000.0001) %MON forcing_qsw_max              =   0.0000000000000E+00
(PID.TID 0000.0001) %MON forcing_qsw_min              =  -7.2856876703622E+02
(PID.TID 0000.0001) %MON forcing_qsw_mean             =  -1.9964439285809E+02
(PID.TID 0000.0001) %MON forcing_qsw_sd               =   1.7821513640882E+02
(PID.TID 0000.0001) %MON forcing_qsw_del2             =   7.9257640784507E-02
(PID.TID 0000.0001) %MON forcing_empmr_max            =   2.2970121279561E-03
(PID.TID 0000.0001) %MON forcing_empmr_min            =  -2.5691237747494E-03
(PID.TID 0000.0001) %MON forcing_empmr_mean           =   1.1866985039757E-06
(PID.TID 0000.0001) %MON forcing_empmr_sd             =   1.0870046126265E-04
(PID.TID 0000.0001) %MON forcing_empmr_del2           =   4.7276634141755E-07
(PID.TID 0000.0001) %MON forcing_fu_max               =   1.5334456274282E+00
(PID.TID 0000.0001) %MON forcing_fu_min               =  -1.9517171937378E+00
(PID.TID 0000.0001) %MON forcing_fu_mean              =   1.3895025962309E-02
(PID.TID 0000.0001) %MON forcing_fu_sd                =   1.0350693911267E-01
(PID.TID 0000.0001) %MON forcing_fu_del2              =   8.7092381414435E-05
(PID.TID 0000.0001) %MON forcing_fv_max               =   1.3340750877159E+00
(PID.TID 0000.0001) %MON forcing_fv_min               =  -5.5097466106336E-01
(PID.TID 0000.0001) %MON forcing_fv_mean              =   3.7527849989288E-03
(PID.TID 0000.0001) %MON forcing_fv_sd                =   1.1347027003957E-01
(PID.TID 0000.0001) %MON forcing_fv_del2              =   7.7231399633625E-05
(PID.TID 0000.0001) %MON trAdv_CFL_u_max              =   6.6196861800051E-02
(PID.TID 0000.0001) %MON trAdv_CFL_v_max              =   8.0239183314024E-02
(PID.TID 0000.0001) %MON trAdv_CFL_w_max              =   2.4450623547241E-01
(PID.TID 0000.0001) %MON advcfl_uvel_max              =   6.1480018241787E-02
(PID.TID 0000.0001) %MON advcfl_vvel_max              =   8.0072056594992E-02
(PID.TID 0000.0001) %MON advcfl_wvel_max              =   2.4658101121724E-01
(PID.TID 0000.0001) %MON advcfl_W_hf_max              =   2.4757507393677E-01
(PID.TID 0000.0001) %MON pe_b_mean                    =   4.3795482111448E-04
(PID.TID 0000.0001) %MON ke_max                       =   4.8115931345093E-01
(PID.TID 0000.0001) %MON ke_mean                      =   5.1151578928844E-04
(PID.TID 0000.0001) %MON ke_vol                       =   1.3349973266722E+18
(PID.TID 0000.0001) %MON vort_r_min                   =  -3.0026823048778E-05
(PID.TID 0000.0001) %MON vort_r_max                   =   3.0414014745226E-05
(PID.TID 0000.0001) %MON vort_a_mean                  =  -1.9727864647440E-05
(PID.TID 0000.0001) %MON vort_a_sd                    =   7.4543374456023E-05
(PID.TID 0000.0001) %MON vort_p_mean                  =  -2.1760535962526E-05
(PID.TID 0000.0001) %MON vort_p_sd                    =   9.7240441452549E-05
(PID.TID 0000.0001) %MON surfExpan_theta_mean         =  -9.8865178539493E-09
(PID.TID 0000.0001) %MON surfExpan_salt_mean          =   5.0351160774655E-08
(PID.TID 0000.0001) // =======================================================
(PID.TID 0000.0001) // End MONITOR dynamic field statistics
(PID.TID 0000.0001) // =======================================================
(PID.TID 0000.0001) // =======================================================
(PID.TID 0000.0001) // Begin MONITOR SEAICE statistics
(PID.TID 0000.0001) // =======================================================
(PID.TID 0000.0001) %MON seaice_tsnumber              =                     7
(PID.TID 0000.0001) %MON seaice_time_sec              =   2.5200000000000E+04
(PID.TID 0000.0001) %MON seaice_uice_max              =   4.0000000000000E-01
(PID.TID 0000.0001) %MON seaice_uice_min              =  -4.0000000000000E-01
(PID.TID 0000.0001) %MON seaice_uice_mean             =   6.0976066375606E-03
(PID.TID 0000.0001) %MON seaice_uice_sd               =   1.8919636586298E-01
(PID.TID 0000.0001) %MON seaice_uice_del2             =   2.0695558487152E-04
(PID.TID 0000.0001) %MON seaice_vice_max              =   4.0000000000000E-01
(PID.TID 0000.0001) %MON seaice_vice_min              =  -4.0000000000000E-01
(PID.TID 0000.0001) %MON seaice_vice_mean             =  -9.3481307929199E-03
(PID.TID 0000.0001) %MON seaice_vice_sd               =   1.9622920292844E-01
(PID.TID 0000.0001) %MON seaice_vice_del2             =   2.1253232236191E-04
(PID.TID 0000.0001) %MON seaice_area_max              =   9.7000000000000E-01
(PID.TID 0000.0001) %MON seaice_area_min              =   0.0000000000000E+00
(PID.TID 0000.0001) %MON seaice_area_mean             =   3.9438366446591E-02
(PID.TID 0000.0001) %MON seaice_area_sd               =   1.8005639886654E-01
(PID.TID 0000.0001) %MON seaice_area_del2             =   2.6801224274094E-04
(PID.TID 0000.0001) %MON seaice_heff_max              =   3.8238739425556E+00
(PID.TID 0000.0001) %MON seaice_heff_min              =   0.0000000000000E+00
(PID.TID 0000.0001) %MON seaice_heff_mean             =   5.3433309789016E-02
(PID.TID 0000.0001) %MON seaice_heff_sd               =   3.0493445247010E-01
(PID.TID 0000.0001) %MON seaice_heff_del2             =   2.8368338014935E-04
(PID.TID 0000.0001) %MON seaice_hsnow_max             =   8.6085815746612E-01
(PID.TID 0000.0001) %MON seaice_hsnow_min             =  -4.3368086899420E-19
(PID.TID 0000.0001) %MON seaice_hsnow_mean            =   5.2418145765874E-03
(PID.TID 0000.0001) %MON seaice_hsnow_sd              =   3.1436162909869E-02
(PID.TID 0000.0001) %MON seaice_hsnow_del2            =   5.3410092439195E-05
(PID.TID 0000.0001) // =======================================================
(PID.TID 0000.0001) // End MONITOR SEAICE statistics
(PID.TID 0000.0001) // =======================================================
(PID.TID 0000.0001) // =======================================================
(PID.TID 0000.0001) // Begin MONITOR EXF statistics
(PID.TID 0000.0001) // =======================================================
(PID.TID 0000.0001) %MON exf_tsnumber                 =                     7
(PID.TID 0000.0001) %MON exf_time_sec                 =   2.5200000000000E+04
(PID.TID 0000.0001) %MON exf_ustress_max              =   2.0493817814674E+00
(PID.TID 0000.0001) %MON exf_ustress_min              =  -1.8521872805190E+00
(PID.TID 0000.0001) %MON exf_ustress_mean             =   1.3513663420318E-02
(PID.TID 0000.0001) %MON exf_ustress_sd               =   1.0462722881087E-01
(PID.TID 0000.0001) %MON exf_ustress_del2             =   1.0477703933464E-04
(PID.TID 0000.0001) %MON exf_vstress_max              =   1.5197769768859E+00
(PID.TID 0000.0001) %MON exf_vstress_min              =  -6.1938667280503E-01
(PID.TID 0000.0001) %MON exf_vstress_mean             =   3.6219941852612E-03
(PID.TID 0000.0001) %MON exf_vstress_sd               =   1.1521402093961E-01
(PID.TID 0000.0001) %MON exf_vstress_del2             =   8.6116067776970E-05
(PID.TID 0000.0001) %MON exf_hflux_max                =   1.3255723467956E+03
(PID.TID 0000.0001) %MON exf_hflux_min                =  -6.2606226965308E+02
(PID.TID 0000.0001) %MON exf_hflux_mean               =  -1.0802900488429E+01
(PID.TID 0000.0001) %MON exf_hflux_sd                 =   2.4744038042354E+02
(PID.TID 0000.0001) %MON exf_hflux_del2               =   4.2800109583475E-01
(PID.TID 0000.0001) %MON exf_sflux_max                =   2.1094534261171E-07
(PID.TID 0000.0001) %MON exf_sflux_min                =  -2.6947516715399E-06
(PID.TID 0000.0001) %MON exf_sflux_mean               =   3.3983848133099E-09
(PID.TID 0000.0001) %MON exf_sflux_sd                 =   8.9443842829283E-08
(PID.TID 0000.0001) %MON exf_sflux_del2               =   2.3176285807538E-10
(PID.TID 0000.0001) %MON exf_wspeed_max               =   2.2324523495989E+01
(PID.TID 0000.0001) %MON exf_wspeed_min               =   4.4407348923388E-01
(PID.TID 0000.0001) %MON exf_wspeed_mean              =   6.9532907423740E+00
(PID.TID 0000.0001) %MON exf_wspeed_sd                =   3.0881484312736E+00
(PID.TID 0000.0001) %MON exf_wspeed_del2              =   1.1976804360832E-02
(PID.TID 0000.0001) %MON exf_atemp_max                =   3.0402856055412E+02
(PID.TID 0000.0001) %MON exf_atemp_min                =   2.3272933270561E+02
(PID.TID 0000.0001) %MON exf_atemp_mean               =   2.8930233032034E+02
(PID.TID 0000.0001) %MON exf_atemp_sd                 =   1.2246152398954E+01
(PID.TID 0000.0001) %MON exf_atemp_del2               =   2.6550359358640E-02
(PID.TID 0000.0001) %MON exf_aqh_max                  =   2.2071742751933E-02
(PID.TID 0000.0001) %MON exf_aqh_min                  =   9.4977172714777E-05
(PID.TID 0000.0001) %MON exf_aqh_mean                 =   1.1004237720306E-02
(PID.TID 0000.0001) %MON exf_aqh_sd                   =   5.6718525851041E-03
(PID.TID 0000.0001) %MON exf_aqh_del2                 =   1.4812919343602E-05
(PID.TID 0000.0001) %MON exf_lwflux_max               =   2.3041511974036E+02
(PID.TID 0000.0001) %MON exf_lwflux_min               =  -1.2887298118867E+01
(PID.TID 0000.0001) %MON exf_lwflux_mean              =   5.8153807923555E+01
(PID.TID 0000.0001) %MON exf_lwflux_sd                =   2.8574497410630E+01
(PID.TID 0000.0001) %MON exf_lwflux_del2              =   1.0869554863059E-01
(PID.TID 0000.0001) %MON exf_evap_max                 =   2.3030402639022E-07
(PID.TID 0000.0001) %MON exf_evap_min                 =  -3.2268733605801E-08
(PID.TID 0000.0001) %MON exf_evap_mean                =   4.3524354561583E-08
(PID.TID 0000.0001) %MON exf_evap_sd                  =   2.8036007499364E-08
(PID.TID 0000.0001) %MON exf_evap_del2                =   6.9561938436015E-11
(PID.TID 0000.0001) %MON exf_precip_max               =   2.7391222779732E-06
(PID.TID 0000.0001) %MON exf_precip_min               =  -1.3183406187123E-09
(PID.TID 0000.0001) %MON exf_precip_mean              =   3.7082178872092E-08
(PID.TID 0000.0001) %MON exf_precip_sd                =   7.8291481724647E-08
(PID.TID 0000.0001) %MON exf_precip_del2              =   2.2639121189959E-10
(PID.TID 0000.0001) %MON exf_swflux_max               =  -0.0000000000000E+00
(PID.TID 0000.0001) %MON exf_swflux_min               =  -7.3307341038221E+02
(PID.TID 0000.0001) %MON exf_swflux_mean              =  -2.0587944361341E+02
(PID.TID 0000.0001) %MON exf_swflux_sd                =   1.8939673819736E+02
(PID.TID 0000.0001) %MON exf_swflux_del2              =   3.8909453086120E-01
(PID.TID 0000.0001) %MON exf_swdown_max               =   7.9091385048544E+02
(PID.TID 0000.0001) %MON exf_swdown_min               =   0.0000000000000E+00
(PID.TID 0000.0001) %MON exf_swdown_mean              =   2.2333141211637E+02
(PID.TID 0000.0001) %MON exf_swdown_sd                =   2.0455248261610E+02
(PID.TID 0000.0001) %MON exf_swdown_del2              =   4.2255493655610E-01
(PID.TID 0000.0001) %MON exf_lwdown_max               =   4.4920423860529E+02
(PID.TID 0000.0001) %MON exf_lwdown_min               =   6.9132793191492E+01
(PID.TID 0000.0001) %MON exf_lwdown_mean              =   3.5325051057069E+02
(PID.TID 0000.0001) %MON exf_lwdown_sd                =   6.3491458261897E+01
(PID.TID 0000.0001) %MON exf_lwdown_del2              =   4.7419514152600E-01
(PID.TID 0000.0001) %MON exf_runoff_max               =   2.0323493123259E-06
(PID.TID 0000.0001) %MON exf_runoff_min               =   0.0000000000000E+00
(PID.TID 0000.0001) %MON exf_runoff_mean              =   3.0437908761805E-09
(PID.TID 0000.0001) %MON exf_runoff_sd                =   2.3920800719651E-08
(PID.TID 0000.0001) %MON exf_runoff_del2              =   1.8109198425730E-11
(PID.TID 0000.0001) // =======================================================
(PID.TID 0000.0001) // End MONITOR EXF statistics
(PID.TID 0000.0001) // =======================================================
 cg2d: Sum(rhs),rhsMax =   3.01630776289169E+00  1.08470790816857E+00
(PID.TID 0000.0001)      cg2d_init_res =   3.17388417699739E-01
(PID.TID 0000.0001)      cg2d_iters(min,last) =      -1      90
(PID.TID 0000.0001)      cg2d_last_res =   6.40586663997318E-06
(PID.TID 0000.0001) // =======================================================
(PID.TID 0000.0001) // Begin MONITOR dynamic field statistics
(PID.TID 0000.0001) // =======================================================
(PID.TID 0000.0001) %MON time_tsnumber                =                     8
(PID.TID 0000.0001) %MON time_secondsf                =   2.8800000000000E+04
(PID.TID 0000.0001) %MON dynstat_eta_max              =   1.2495278337332E+00
(PID.TID 0000.0001) %MON dynstat_eta_min              =  -4.5239535330831E+00
(PID.TID 0000.0001) %MON dynstat_eta_mean             =  -1.5455055959397E-03
(PID.TID 0000.0001) %MON dynstat_eta_sd               =   7.4466341236164E-01
(PID.TID 0000.0001) %MON dynstat_eta_del2             =   2.7070352961066E-04
(PID.TID 0000.0001) %MON dynstat_uvel_max             =   7.9302844243998E-01
(PID.TID 0000.0001) %MON dynstat_uvel_min             =  -7.0431171111980E-01
(PID.TID 0000.0001) %MON dynstat_uvel_mean            =   1.5110678573985E-03
(PID.TID 0000.0001) %MON dynstat_uvel_sd              =   2.1962508091253E-02
(PID.TID 0000.0001) %MON dynstat_uvel_del2            =   1.5902483473976E-05
(PID.TID 0000.0001) %MON dynstat_vvel_max             =   9.8517333903979E-01
(PID.TID 0000.0001) %MON dynstat_vvel_min             =  -9.3905845780001E-01
(PID.TID 0000.0001) %MON dynstat_vvel_mean            =   1.1754286968135E-03
(PID.TID 0000.0001) %MON dynstat_vvel_sd              =   2.3959244661530E-02
(PID.TID 0000.0001) %MON dynstat_vvel_del2            =   1.7078130722678E-05
(PID.TID 0000.0001) %MON dynstat_wvel_max             =   6.7923506238152E-04
(PID.TID 0000.0001) %MON dynstat_wvel_min             =  -1.2556007249178E-03
(PID.TID 0000.0001) %MON dynstat_wvel_mean            =  -1.1048515166301E-08
(PID.TID 0000.0001) %MON dynstat_wvel_sd              =   3.0482054308483E-05
(PID.TID 0000.0001) %MON dynstat_wvel_del2            =   3.4251135442794E-08
(PID.TID 0000.0001) %MON dynstat_theta_max            =   3.2583503061518E+01
(PID.TID 0000.0001) %MON dynstat_theta_min            =  -2.0422021144701E+00
(PID.TID 0000.0001) %MON dynstat_theta_mean           =   3.5906121367119E+00
(PID.TID 0000.0001) %MON dynstat_theta_sd             =   4.4366063757008E+00
(PID.TID 0000.0001) %MON dynstat_theta_del2           =   1.0836957517086E-04
(PID.TID 0000.0001) %MON dynstat_salt_max             =   4.0711514283324E+01
(PID.TID 0000.0001) %MON dynstat_salt_min             =   1.7454488295964E+01
(PID.TID 0000.0001) %MON dynstat_salt_mean            =   3.4725688877731E+01
(PID.TID 0000.0001) %MON dynstat_salt_sd              =   3.7887628644447E-01
(PID.TID 0000.0001) %MON dynstat_salt_del2            =   2.6875514891232E-05
(PID.TID 0000.0001) %MON forcing_qnet_max             =   9.3850754660929E+02
(PID.TID 0000.0001) %MON forcing_qnet_min             =  -6.3637786802592E+02
(PID.TID 0000.0001) %MON forcing_qnet_mean            =  -2.5679896471204E+01
(PID.TID 0000.0001) %MON forcing_qnet_sd              =   2.2172716925281E+02
(PID.TID 0000.0001) %MON forcing_qnet_del2            =   1.5537671997626E-01
(PID.TID 0000.0001) %MON forcing_qsw_max              =   0.0000000000000E+00
(PID.TID 0000.0001) %MON forcing_qsw_min              =  -7.3307341038221E+02
(PID.TID 0000.0001) %MON forcing_qsw_mean             =  -2.0387546308598E+02
(PID.TID 0000.0001) %MON forcing_qsw_sd               =   1.8882809234419E+02
(PID.TID 0000.0001) %MON forcing_qsw_del2             =   8.3431349863784E-02
(PID.TID 0000.0001) %MON forcing_empmr_max            =   2.2817056458663E-03
(PID.TID 0000.0001) %MON forcing_empmr_min            =  -2.6968155855459E-03
(PID.TID 0000.0001) %MON forcing_empmr_mean           =   1.2446506229093E-06
(PID.TID 0000.0001) %MON forcing_empmr_sd             =   1.0973555327445E-04
(PID.TID 0000.0001) %MON forcing_empmr_del2           =   4.7305939701688E-07
(PID.TID 0000.0001) %MON forcing_fu_max               =   1.4303429119628E+00
(PID.TID 0000.0001) %MON forcing_fu_min               =  -1.9024782091439E+00
(PID.TID 0000.0001) %MON forcing_fu_mean              =   1.3738867740823E-02
(PID.TID 0000.0001) %MON forcing_fu_sd                =   1.0290431630415E-01
(PID.TID 0000.0001) %MON forcing_fu_del2              =   8.7363314843357E-05
(PID.TID 0000.0001) %MON forcing_fv_max               =   1.3287254822515E+00
(PID.TID 0000.0001) %MON forcing_fv_min               =  -5.4863918815008E-01
(PID.TID 0000.0001) %MON forcing_fv_mean              =   3.6606275022726E-03
(PID.TID 0000.0001) %MON forcing_fv_sd                =   1.1433068128427E-01
(PID.TID 0000.0001) %MON forcing_fv_del2              =   7.9184138396638E-05
(PID.TID 0000.0001) %MON trAdv_CFL_u_max              =   6.3503050444617E-02
(PID.TID 0000.0001) %MON trAdv_CFL_v_max              =   7.7505518714817E-02
(PID.TID 0000.0001) %MON trAdv_CFL_w_max              =   2.2863272703909E-01
(PID.TID 0000.0001) %MON advcfl_uvel_max              =   6.4510623658510E-02
(PID.TID 0000.0001) %MON advcfl_vvel_max              =   7.7329146191048E-02
(PID.TID 0000.0001) %MON advcfl_wvel_max              =   2.3077142412256E-01
(PID.TID 0000.0001) %MON advcfl_W_hf_max              =   2.3170156299579E-01
(PID.TID 0000.0001) %MON pe_b_mean                    =   4.3775471172683E-04
(PID.TID 0000.0001) %MON ke_max                       =   4.8702647564813E-01
(PID.TID 0000.0001) %MON ke_mean                      =   5.1115842266859E-04
(PID.TID 0000.0001) %MON ke_vol                       =   1.3349973251858E+18
(PID.TID 0000.0001) %MON vort_r_min                   =  -3.0302552684625E-05
(PID.TID 0000.0001) %MON vort_r_max                   =   2.8905017323493E-05
(PID.TID 0000.0001) %MON vort_a_mean                  =  -1.9727864647440E-05
(PID.TID 0000.0001) %MON vort_a_sd                    =   7.4543365529311E-05
(PID.TID 0000.0001) %MON vort_p_mean                  =  -2.1760535976182E-05
(PID.TID 0000.0001) %MON vort_p_sd                    =   9.7240548315392E-05
(PID.TID 0000.0001) %MON surfExpan_theta_mean         =  -6.5802665901211E-08
(PID.TID 0000.0001) %MON surfExpan_salt_mean          =   5.5240217606963E-08
(PID.TID 0000.0001) // =======================================================
(PID.TID 0000.0001) // End MONITOR dynamic field statistics
(PID.TID 0000.0001) // =======================================================
(PID.TID 0000.0001) // =======================================================
(PID.TID 0000.0001) // Begin MONITOR SEAICE statistics
(PID.TID 0000.0001) // =======================================================
(PID.TID 0000.0001) %MON seaice_tsnumber              =                     8
(PID.TID 0000.0001) %MON seaice_time_sec              =   2.8800000000000E+04
(PID.TID 0000.0001) %MON seaice_uice_max              =   4.0000000000000E-01
(PID.TID 0000.0001) %MON seaice_uice_min              =  -4.0000000000000E-01
(PID.TID 0000.0001) %MON seaice_uice_mean             =   6.2971474436905E-03
(PID.TID 0000.0001) %MON seaice_uice_sd               =   1.8865177580377E-01
(PID.TID 0000.0001) %MON seaice_uice_del2             =   2.0458001617195E-04
(PID.TID 0000.0001) %MON seaice_vice_max              =   4.0000000000000E-01
(PID.TID 0000.0001) %MON seaice_vice_min              =  -4.0000000000000E-01
(PID.TID 0000.0001) %MON seaice_vice_mean             =  -9.5582902920684E-03
(PID.TID 0000.0001) %MON seaice_vice_sd               =   1.9594886387086E-01
(PID.TID 0000.0001) %MON seaice_vice_del2             =   2.1069481609412E-04
(PID.TID 0000.0001) %MON seaice_area_max              =   9.7000000000000E-01
(PID.TID 0000.0001) %MON seaice_area_min              =   0.0000000000000E+00
(PID.TID 0000.0001) %MON seaice_area_mean             =   3.9450895070304E-02
(PID.TID 0000.0001) %MON seaice_area_sd               =   1.8012358889961E-01
(PID.TID 0000.0001) %MON seaice_area_del2             =   2.6529343479479E-04
(PID.TID 0000.0001) %MON seaice_heff_max              =   3.8242204407291E+00
(PID.TID 0000.0001) %MON seaice_heff_min              =   0.0000000000000E+00
(PID.TID 0000.0001) %MON seaice_heff_mean             =   5.3438655165852E-02
(PID.TID 0000.0001) %MON seaice_heff_sd               =   3.0498313905618E-01
(PID.TID 0000.0001) %MON seaice_heff_del2             =   2.8172188953077E-04
(PID.TID 0000.0001) %MON seaice_hsnow_max             =   8.7221830927265E-01
(PID.TID 0000.0001) %MON seaice_hsnow_min             =  -4.3368086899420E-19
(PID.TID 0000.0001) %MON seaice_hsnow_mean            =   5.2406523018064E-03
(PID.TID 0000.0001) %MON seaice_hsnow_sd              =   3.1432609722441E-02
(PID.TID 0000.0001) %MON seaice_hsnow_del2            =   5.3072137685594E-05
(PID.TID 0000.0001) // =======================================================
(PID.TID 0000.0001) // End MONITOR SEAICE statistics
(PID.TID 0000.0001) // =======================================================
(PID.TID 0000.0001) // =======================================================
(PID.TID 0000.0001) // Begin MONITOR EXF statistics
(PID.TID 0000.0001) // =======================================================
(PID.TID 0000.0001) %MON exf_tsnumber                 =                     8
(PID.TID 0000.0001) %MON exf_time_sec                 =   2.8800000000000E+04
(PID.TID 0000.0001) %MON exf_ustress_max              =   1.6198373874780E+00
(PID.TID 0000.0001) %MON exf_ustress_min              =  -1.9023385311226E+00
(PID.TID 0000.0001) %MON exf_ustress_mean             =   1.3342479550242E-02
(PID.TID 0000.0001) %MON exf_ustress_sd               =   1.0482629594097E-01
(PID.TID 0000.0001) %MON exf_ustress_del2             =   1.0604080625621E-04
(PID.TID 0000.0001) %MON exf_vstress_max              =   1.5054118400766E+00
(PID.TID 0000.0001) %MON exf_vstress_min              =  -6.1705346567807E-01
(PID.TID 0000.0001) %MON exf_vstress_mean             =   3.5380229346511E-03
(PID.TID 0000.0001) %MON exf_vstress_sd               =   1.1672104366781E-01
(PID.TID 0000.0001) %MON exf_vstress_del2             =   9.1371690064713E-05
(PID.TID 0000.0001) %MON exf_hflux_max                =   1.2541554889715E+03
(PID.TID 0000.0001) %MON exf_hflux_min                =  -6.5153462517282E+02
(PID.TID 0000.0001) %MON exf_hflux_mean               =  -1.4970889462669E+01
(PID.TID 0000.0001) %MON exf_hflux_sd                 =   2.6812797890221E+02
(PID.TID 0000.0001) %MON exf_hflux_del2               =   4.5281399061713E-01
(PID.TID 0000.0001) %MON exf_sflux_max                =   2.1320020691559E-07
(PID.TID 0000.0001) %MON exf_sflux_min                =  -2.8234205268129E-06
(PID.TID 0000.0001) %MON exf_sflux_mean               =   3.2190777251133E-09
(PID.TID 0000.0001) %MON exf_sflux_sd                 =   9.2804130737078E-08
(PID.TID 0000.0001) %MON exf_sflux_del2               =   2.5169680948750E-10
(PID.TID 0000.0001) %MON exf_wspeed_max               =   2.1230918947362E+01
(PID.TID 0000.0001) %MON exf_wspeed_min               =   3.9974688084646E-01
(PID.TID 0000.0001) %MON exf_wspeed_mean              =   6.9326776260964E+00
(PID.TID 0000.0001) %MON exf_wspeed_sd                =   3.1153476587776E+00
(PID.TID 0000.0001) %MON exf_wspeed_del2              =   1.2020928798458E-02
(PID.TID 0000.0001) %MON exf_atemp_max                =   3.0440308835833E+02
(PID.TID 0000.0001) %MON exf_atemp_min                =   2.3241933007828E+02
(PID.TID 0000.0001) %MON exf_atemp_mean               =   2.8930192766711E+02
(PID.TID 0000.0001) %MON exf_atemp_sd                 =   1.2255302366414E+01
(PID.TID 0000.0001) %MON exf_atemp_del2               =   2.6577981081093E-02
(PID.TID 0000.0001) %MON exf_aqh_max                  =   2.2177226680151E-02
(PID.TID 0000.0001) %MON exf_aqh_min                  =   9.0655755596675E-05
(PID.TID 0000.0001) %MON exf_aqh_mean                 =   1.0987137252657E-02
(PID.TID 0000.0001) %MON exf_aqh_sd                   =   5.6636862312512E-03
(PID.TID 0000.0001) %MON exf_aqh_del2                 =   1.4795752084831E-05
(PID.TID 0000.0001) %MON exf_lwflux_max               =   2.3057514779055E+02
(PID.TID 0000.0001) %MON exf_lwflux_min               =  -1.3084956038458E+01
(PID.TID 0000.0001) %MON exf_lwflux_mean              =   5.8147201339605E+01
(PID.TID 0000.0001) %MON exf_lwflux_sd                =   2.8770383029202E+01
(PID.TID 0000.0001) %MON exf_lwflux_del2              =   1.0934637668093E-01
(PID.TID 0000.0001) %MON exf_evap_max                 =   2.3249128302420E-07
(PID.TID 0000.0001) %MON exf_evap_min                 =  -3.4056976151594E-08
(PID.TID 0000.0001) %MON exf_evap_mean                =   4.3551654055355E-08
(PID.TID 0000.0001) %MON exf_evap_sd                  =   2.8146819239400E-08
(PID.TID 0000.0001) %MON exf_evap_del2                =   7.0105715615778E-11
(PID.TID 0000.0001) %MON exf_precip_max               =   2.8643460198128E-06
(PID.TID 0000.0001) %MON exf_precip_min               =  -3.0412607572472E-09
(PID.TID 0000.0001) %MON exf_precip_mean              =   3.7289237666874E-08
(PID.TID 0000.0001) %MON exf_precip_sd                =   8.1885879619799E-08
(PID.TID 0000.0001) %MON exf_precip_del2              =   2.4578474868965E-10
(PID.TID 0000.0001) %MON exf_swflux_max               =  -0.0000000000000E+00
(PID.TID 0000.0001) %MON exf_swflux_min               =  -8.0191167862034E+02
(PID.TID 0000.0001) %MON exf_swflux_mean              =  -2.1012178427254E+02
(PID.TID 0000.0001) %MON exf_swflux_sd                =   2.1438134705133E+02
(PID.TID 0000.0001) %MON exf_swflux_del2              =   4.1858087245498E-01
(PID.TID 0000.0001) %MON exf_swdown_max               =   8.6475983801556E+02
(PID.TID 0000.0001) %MON exf_swdown_min               =   0.0000000000000E+00
(PID.TID 0000.0001) %MON exf_swdown_mean              =   2.2791966960688E+02
(PID.TID 0000.0001) %MON exf_swdown_sd                =   2.3160251247229E+02
(PID.TID 0000.0001) %MON exf_swdown_del2              =   4.5441565055362E-01
(PID.TID 0000.0001) %MON exf_lwdown_max               =   4.4927302600660E+02
(PID.TID 0000.0001) %MON exf_lwdown_min               =   6.8967822322029E+01
(PID.TID 0000.0001) %MON exf_lwdown_mean              =   3.5326194444051E+02
(PID.TID 0000.0001) %MON exf_lwdown_sd                =   6.3560722828184E+01
(PID.TID 0000.0001) %MON exf_lwdown_del2              =   4.7406059490690E-01
(PID.TID 0000.0001) %MON exf_runoff_max               =   2.0339263917248E-06
(PID.TID 0000.0001) %MON exf_runoff_min               =   0.0000000000000E+00
(PID.TID 0000.0001) %MON exf_runoff_mean              =   3.0433386633674E-09
(PID.TID 0000.0001) %MON exf_runoff_sd                =   2.3935418856969E-08
(PID.TID 0000.0001) %MON exf_runoff_del2              =   1.8114379987919E-11
(PID.TID 0000.0001) // =======================================================
(PID.TID 0000.0001) // End MONITOR EXF statistics
(PID.TID 0000.0001) // =======================================================
 cg2d: Sum(rhs),rhsMax =   3.01995412191042E+00  1.08353186428219E+00
(PID.TID 0000.0001)      cg2d_init_res =   3.10512009916359E-01
(PID.TID 0000.0001)      cg2d_iters(min,last) =      -1      87
(PID.TID 0000.0001)      cg2d_last_res =   7.00108281322553E-06
(PID.TID 0000.0001) // =======================================================
(PID.TID 0000.0001) // Begin MONITOR dynamic field statistics
(PID.TID 0000.0001) // =======================================================
(PID.TID 0000.0001) %MON time_tsnumber                =                     9
(PID.TID 0000.0001) %MON time_secondsf                =   3.2400000000000E+04
(PID.TID 0000.0001) %MON dynstat_eta_max              =   1.1960826366137E+00
(PID.TID 0000.0001) %MON dynstat_eta_min              =  -4.5071460322778E+00
(PID.TID 0000.0001) %MON dynstat_eta_mean             =  -1.5499488828923E-03
(PID.TID 0000.0001) %MON dynstat_eta_sd               =   7.4465677980029E-01
(PID.TID 0000.0001) %MON dynstat_eta_del2             =   2.6908151101769E-04
(PID.TID 0000.0001) %MON dynstat_uvel_max             =   7.6338740367765E-01
(PID.TID 0000.0001) %MON dynstat_uvel_min             =  -6.7727328348297E-01
(PID.TID 0000.0001) %MON dynstat_uvel_mean            =   1.5060461991870E-03
(PID.TID 0000.0001) %MON dynstat_uvel_sd              =   2.1921715450272E-02
(PID.TID 0000.0001) %MON dynstat_uvel_del2            =   1.5637977267930E-05
(PID.TID 0000.0001) %MON dynstat_vvel_max             =   9.9153185189819E-01
(PID.TID 0000.0001) %MON dynstat_vvel_min             =  -9.3717328412557E-01
(PID.TID 0000.0001) %MON dynstat_vvel_mean            =   1.1847135825536E-03
(PID.TID 0000.0001) %MON dynstat_vvel_sd              =   2.3969308331269E-02
(PID.TID 0000.0001) %MON dynstat_vvel_del2            =   1.6792853611057E-05
(PID.TID 0000.0001) %MON dynstat_wvel_max             =   6.8040619072966E-04
(PID.TID 0000.0001) %MON dynstat_wvel_min             =  -1.2472373259168E-03
(PID.TID 0000.0001) %MON dynstat_wvel_mean            =  -1.1382949331094E-08
(PID.TID 0000.0001) %MON dynstat_wvel_sd              =   3.0616696370405E-05
(PID.TID 0000.0001) %MON dynstat_wvel_del2            =   3.4734505602466E-08
(PID.TID 0000.0001) %MON dynstat_theta_max            =   3.2572923344623E+01
(PID.TID 0000.0001) %MON dynstat_theta_min            =  -2.0422270418305E+00
(PID.TID 0000.0001) %MON dynstat_theta_mean           =   3.5906191922651E+00
(PID.TID 0000.0001) %MON dynstat_theta_sd             =   4.4366221546936E+00
(PID.TID 0000.0001) %MON dynstat_theta_del2           =   1.0823343654830E-04
(PID.TID 0000.0001) %MON dynstat_salt_max             =   4.0711512421740E+01
(PID.TID 0000.0001) %MON dynstat_salt_min             =   1.7454128680414E+01
(PID.TID 0000.0001) %MON dynstat_salt_mean            =   3.4725688915421E+01
(PID.TID 0000.0001) %MON dynstat_salt_sd              =   3.7887586077045E-01
(PID.TID 0000.0001) %MON dynstat_salt_del2            =   2.6807348766544E-05
(PID.TID 0000.0001) %MON forcing_qnet_max             =   9.6319518295619E+02
(PID.TID 0000.0001) %MON forcing_qnet_min             =  -6.5674522323394E+02
(PID.TID 0000.0001) %MON forcing_qnet_mean            =  -2.9875373880296E+01
(PID.TID 0000.0001) %MON forcing_qnet_sd              =   2.4417844693665E+02
(PID.TID 0000.0001) %MON forcing_qnet_del2            =   1.5693224547596E-01
(PID.TID 0000.0001) %MON forcing_qsw_max              =   0.0000000000000E+00
(PID.TID 0000.0001) %MON forcing_qsw_min              =  -8.0191167862034E+02
(PID.TID 0000.0001) %MON forcing_qsw_mean             =  -2.0810389746141E+02
(PID.TID 0000.0001) %MON forcing_qsw_sd               =   2.1393594499885E+02
(PID.TID 0000.0001) %MON forcing_qsw_del2             =   9.0607213363101E-02
(PID.TID 0000.0001) %MON forcing_empmr_max            =   2.2670596702340E-03
(PID.TID 0000.0001) %MON forcing_empmr_min            =  -2.8253014125073E-03
(PID.TID 0000.0001) %MON forcing_empmr_mean           =   1.2700395206238E-06
(PID.TID 0000.0001) %MON forcing_empmr_sd             =   1.1207292546945E-04
(PID.TID 0000.0001) %MON forcing_empmr_del2           =   4.7270491511542E-07
(PID.TID 0000.0001) %MON forcing_fu_max               =   1.1371588902365E+00
(PID.TID 0000.0001) %MON forcing_fu_min               =  -1.8593129816480E+00
(PID.TID 0000.0001) %MON forcing_fu_mean              =   1.3575016971234E-02
(PID.TID 0000.0001) %MON forcing_fu_sd                =   1.0307222135140E-01
(PID.TID 0000.0001) %MON forcing_fu_del2              =   8.9658011595620E-05
(PID.TID 0000.0001) %MON forcing_fv_max               =   1.3233759060643E+00
(PID.TID 0000.0001) %MON forcing_fv_min               =  -5.4628043990626E-01
(PID.TID 0000.0001) %MON forcing_fv_mean              =   3.5496418143778E-03
(PID.TID 0000.0001) %MON forcing_fv_sd                =   1.1582155712821E-01
(PID.TID 0000.0001) %MON forcing_fv_del2              =   8.3386391100426E-05
(PID.TID 0000.0001) %MON trAdv_CFL_u_max              =   6.2644675950524E-02
(PID.TID 0000.0001) %MON trAdv_CFL_v_max              =   7.5619883398220E-02
(PID.TID 0000.0001) %MON trAdv_CFL_w_max              =   2.1527407655714E-01
(PID.TID 0000.0001) %MON advcfl_uvel_max              =   6.6144528691578E-02
(PID.TID 0000.0001) %MON advcfl_vvel_max              =   7.4733231149585E-02
(PID.TID 0000.0001) %MON advcfl_wvel_max              =   2.1746621831230E-01
(PID.TID 0000.0001) %MON advcfl_W_hf_max              =   2.1834291511982E-01
(PID.TID 0000.0001) %MON pe_b_mean                    =   4.3751868860519E-04
(PID.TID 0000.0001) %MON ke_max                       =   4.9236127571428E-01
(PID.TID 0000.0001) %MON ke_mean                      =   5.1053126615319E-04
(PID.TID 0000.0001) %MON ke_vol                       =   1.3349973236269E+18
(PID.TID 0000.0001) %MON vort_r_min                   =  -3.0157313199641E-05
(PID.TID 0000.0001) %MON vort_r_max                   =   2.7483528080015E-05
(PID.TID 0000.0001) %MON vort_a_mean                  =  -1.9727864647440E-05
(PID.TID 0000.0001) %MON vort_a_sd                    =   7.4543358227527E-05
(PID.TID 0000.0001) %MON vort_p_mean                  =  -2.1760535972750E-05
(PID.TID 0000.0001) %MON vort_p_sd                    =   9.7240652576904E-05
(PID.TID 0000.0001) %MON surfExpan_theta_mean         =  -1.1153717726500E-07
(PID.TID 0000.0001) %MON surfExpan_salt_mean          =   5.4100508472046E-08
(PID.TID 0000.0001) // =======================================================
(PID.TID 0000.0001) // End MONITOR dynamic field statistics
(PID.TID 0000.0001) // =======================================================
(PID.TID 0000.0001) // =======================================================
(PID.TID 0000.0001) // Begin MONITOR SEAICE statistics
(PID.TID 0000.0001) // =======================================================
(PID.TID 0000.0001) %MON seaice_tsnumber              =                     9
(PID.TID 0000.0001) %MON seaice_time_sec              =   3.2400000000000E+04
(PID.TID 0000.0001) %MON seaice_uice_max              =   4.0000000000000E-01
(PID.TID 0000.0001) %MON seaice_uice_min              =  -4.0000000000000E-01
(PID.TID 0000.0001) %MON seaice_uice_mean             =   6.0969785593929E-03
(PID.TID 0000.0001) %MON seaice_uice_sd               =   1.8738026295958E-01
(PID.TID 0000.0001) %MON seaice_uice_del2             =   2.0322366461154E-04
(PID.TID 0000.0001) %MON seaice_vice_max              =   4.0000000000000E-01
(PID.TID 0000.0001) %MON seaice_vice_min              =  -4.0000000000000E-01
(PID.TID 0000.0001) %MON seaice_vice_mean             =  -9.6369870432438E-03
(PID.TID 0000.0001) %MON seaice_vice_sd               =   1.9518612109365E-01
(PID.TID 0000.0001) %MON seaice_vice_del2             =   2.1008470112904E-04
(PID.TID 0000.0001) %MON seaice_area_max              =   9.7000000000000E-01
(PID.TID 0000.0001) %MON seaice_area_min              =   0.0000000000000E+00
(PID.TID 0000.0001) %MON seaice_area_mean             =   3.9460770925730E-02
(PID.TID 0000.0001) %MON seaice_area_sd               =   1.8018987232874E-01
(PID.TID 0000.0001) %MON seaice_area_del2             =   2.6296678892723E-04
(PID.TID 0000.0001) %MON seaice_heff_max              =   3.8245688572966E+00
(PID.TID 0000.0001) %MON seaice_heff_min              =   0.0000000000000E+00
(PID.TID 0000.0001) %MON seaice_heff_mean             =   5.3444048823605E-02
(PID.TID 0000.0001) %MON seaice_heff_sd               =   3.0503115891839E-01
(PID.TID 0000.0001) %MON seaice_heff_del2             =   2.7998781866434E-04
(PID.TID 0000.0001) %MON seaice_hsnow_max             =   8.8245675139071E-01
(PID.TID 0000.0001) %MON seaice_hsnow_min             =  -2.1684043449710E-19
(PID.TID 0000.0001) %MON seaice_hsnow_mean            =   5.2396338585300E-03
(PID.TID 0000.0001) %MON seaice_hsnow_sd              =   3.1428995210631E-02
(PID.TID 0000.0001) %MON seaice_hsnow_del2            =   5.2772786180949E-05
(PID.TID 0000.0001) // =======================================================
(PID.TID 0000.0001) // End MONITOR SEAICE statistics
(PID.TID 0000.0001) // =======================================================
(PID.TID 0000.0001) %CHECKPOINT         9 ckptA
(PID.TID 0000.0001) 
(PID.TID 0000.0001) == cost_profiles: begin ==
(PID.TID 0000.0001) == cost_profiles: end   ==
(PID.TID 0000.0001) 
(PID.TID 0000.0001)  --> f_gencost = 0.427572450015610D+07 7
(PID.TID 0000.0001)  --> f_gencost = 0.490822322919029D+07 8
(PID.TID 0000.0001)  --> f_gencost = 0.101769702990439D+0617
(PID.TID 0000.0001)  --> f_genarr3d = 0.000000000000000D+00 1
(PID.TID 0000.0001)  --> f_genarr3d = 0.000000000000000D+00 2
(PID.TID 0000.0001)  --> f_genarr3d = 0.000000000000000D+00 3
(PID.TID 0000.0001)  --> fc               = 0.918394772934639D+07
(PID.TID 0000.0001)   early fc =  0.000000000000000D+00
(PID.TID 0000.0001)   local fc =  0.151257848014580D+07
(PID.TID 0000.0001)  global fc =  0.918394772934639D+07
(PID.TID 0000.0001)   Seconds in section "ALL                    [THE_MODEL_MAIN]":
(PID.TID 0000.0001)           User time:   179.25060348957777
(PID.TID 0000.0001)         System time:   15.415907554328442
(PID.TID 0000.0001)     Wall clock time:   218.28228402137756
(PID.TID 0000.0001)          No. starts:           1
(PID.TID 0000.0001)           No. stops:           1
(PID.TID 0000.0001)   Seconds in section "INITIALISE_FIXED       [THE_MODEL_MAIN]":
(PID.TID 0000.0001)           User time:   5.1993158385157585
(PID.TID 0000.0001)         System time:   3.5040230229496956
(PID.TID 0000.0001)     Wall clock time:   8.9087638854980469
(PID.TID 0000.0001)          No. starts:           1
(PID.TID 0000.0001)           No. stops:           1
(PID.TID 0000.0001)   Seconds in section "THE_MAIN_LOOP          [THE_MODEL_MAIN]":
(PID.TID 0000.0001)           User time:   174.05123329162598
(PID.TID 0000.0001)         System time:   11.911805629730225
(PID.TID 0000.0001)     Wall clock time:   209.37342000007629
(PID.TID 0000.0001)          No. starts:           1
(PID.TID 0000.0001)           No. stops:           1
(PID.TID 0000.0001)   Seconds in section "INITIALISE_VARIA    [THE_MAIN_LOOP]":
(PID.TID 0000.0001)           User time:   15.757159709930420
(PID.TID 0000.0001)         System time:   6.2747375965118408
(PID.TID 0000.0001)     Wall clock time:   37.418164968490601
(PID.TID 0000.0001)          No. starts:           1
(PID.TID 0000.0001)           No. stops:           1
(PID.TID 0000.0001)   Seconds in section "MAIN LOOP           [THE_MAIN_LOOP]":
(PID.TID 0000.0001)           User time:   158.29395675659180
(PID.TID 0000.0001)         System time:   5.6370096206665039
(PID.TID 0000.0001)     Wall clock time:   171.95510792732239
(PID.TID 0000.0001)          No. starts:           1
(PID.TID 0000.0001)           No. stops:           1
(PID.TID 0000.0001)   Seconds in section "COST_AVERAGESFIELDS [MAIN_DO_LOOP]":
(PID.TID 0000.0001)           User time:   1.8798465728759766
(PID.TID 0000.0001)         System time:   2.3565292358398438E-003
(PID.TID 0000.0001)     Wall clock time:   2.1898152828216553
(PID.TID 0000.0001)          No. starts:           8
(PID.TID 0000.0001)           No. stops:           8
(PID.TID 0000.0001)   Seconds in section "PROFILES_INLOOP    [MAIN_DO_LOOP]":
(PID.TID 0000.0001)           User time:   5.3501129150390625E-003
(PID.TID 0000.0001)         System time:   3.2424926757812500E-004
(PID.TID 0000.0001)     Wall clock time:   5.6767463684082031E-003
(PID.TID 0000.0001)          No. starts:           8
(PID.TID 0000.0001)           No. stops:           8
(PID.TID 0000.0001)   Seconds in section "MAIN_DO_LOOP        [THE_MAIN_LOOP]":
(PID.TID 0000.0001)           User time:   151.14856338500977
(PID.TID 0000.0001)         System time:   3.4913473129272461
(PID.TID 0000.0001)     Wall clock time:   157.13636374473572
(PID.TID 0000.0001)          No. starts:           8
(PID.TID 0000.0001)           No. stops:           8
(PID.TID 0000.0001)   Seconds in section "FORWARD_STEP        [MAIN_DO_LOOP]":
(PID.TID 0000.0001)           User time:   151.14838409423828
(PID.TID 0000.0001)         System time:   3.4913406372070312
(PID.TID 0000.0001)     Wall clock time:   157.13621520996094
(PID.TID 0000.0001)          No. starts:           8
(PID.TID 0000.0001)           No. stops:           8
(PID.TID 0000.0001)   Seconds in section "UPDATE_R_STAR       [FORWARD_STEP]":
(PID.TID 0000.0001)           User time:   2.6277103424072266
(PID.TID 0000.0001)         System time:   1.9931793212890625E-004
(PID.TID 0000.0001)     Wall clock time:   2.6307477951049805
(PID.TID 0000.0001)          No. starts:          16
(PID.TID 0000.0001)           No. stops:          16
(PID.TID 0000.0001)   Seconds in section "DO_STATEVARS_DIAGS  [FORWARD_STEP]":
(PID.TID 0000.0001)           User time:   1.3719215393066406
(PID.TID 0000.0001)         System time:   2.8581619262695312E-002
(PID.TID 0000.0001)     Wall clock time:   1.4040780067443848
(PID.TID 0000.0001)          No. starts:          24
(PID.TID 0000.0001)           No. stops:          24
(PID.TID 0000.0001)   Seconds in section "LOAD_FIELDS_DRIVER  [FORWARD_STEP]":
(PID.TID 0000.0001)           User time:   1.5137138366699219
(PID.TID 0000.0001)         System time:  0.11807537078857422
(PID.TID 0000.0001)     Wall clock time:   2.0836420059204102
(PID.TID 0000.0001)          No. starts:           8
(PID.TID 0000.0001)           No. stops:           8
(PID.TID 0000.0001)   Seconds in section "EXF_GETFORCING     [LOAD_FLDS_DRIVER]":
(PID.TID 0000.0001)           User time:   1.5132198333740234
(PID.TID 0000.0001)         System time:  0.11803627014160156
(PID.TID 0000.0001)     Wall clock time:   2.0831711292266846
(PID.TID 0000.0001)          No. starts:           8
(PID.TID 0000.0001)           No. stops:           8
(PID.TID 0000.0001)   Seconds in section "EXTERNAL_FLDS_LOAD [LOAD_FLDS_DRIVER]":
(PID.TID 0000.0001)           User time:   1.0681152343750000E-004
(PID.TID 0000.0001)         System time:   1.3351440429687500E-005
(PID.TID 0000.0001)     Wall clock time:   1.3399124145507812E-004
(PID.TID 0000.0001)          No. starts:           8
(PID.TID 0000.0001)           No. stops:           8
(PID.TID 0000.0001)   Seconds in section "CTRL_MAP_FORCING  [FORWARD_STEP]":
(PID.TID 0000.0001)           User time:  0.19662857055664062
(PID.TID 0000.0001)         System time:   1.1291503906250000E-003
(PID.TID 0000.0001)     Wall clock time:  0.20941781997680664
(PID.TID 0000.0001)          No. starts:           8
(PID.TID 0000.0001)           No. stops:           8
(PID.TID 0000.0001)   Seconds in section "DO_ATMOSPHERIC_PHYS [FORWARD_STEP]":
(PID.TID 0000.0001)           User time:  0.11429214477539062
(PID.TID 0000.0001)         System time:   2.1266937255859375E-004
(PID.TID 0000.0001)     Wall clock time:  0.11480116844177246
(PID.TID 0000.0001)          No. starts:           8
(PID.TID 0000.0001)           No. stops:           8
(PID.TID 0000.0001)   Seconds in section "DO_OCEANIC_PHYS     [FORWARD_STEP]":
(PID.TID 0000.0001)           User time:   30.809169769287109
(PID.TID 0000.0001)         System time:   8.1671714782714844E-002
(PID.TID 0000.0001)     Wall clock time:   31.052325248718262
(PID.TID 0000.0001)          No. starts:           8
(PID.TID 0000.0001)           No. stops:           8
(PID.TID 0000.0001)   Seconds in section "SEAICE_MODEL    [DO_OCEANIC_PHYS]":
(PID.TID 0000.0001)           User time:   9.6968517303466797
(PID.TID 0000.0001)         System time:   1.9706726074218750E-002
(PID.TID 0000.0001)     Wall clock time:   9.7551999092102051
(PID.TID 0000.0001)          No. starts:           8
(PID.TID 0000.0001)           No. stops:           8
(PID.TID 0000.0001)   Seconds in section "SEAICE_DYNSOLVER   [SEAICE_MODEL]":
(PID.TID 0000.0001)           User time:   9.0752773284912109
(PID.TID 0000.0001)         System time:   1.9259452819824219E-002
(PID.TID 0000.0001)     Wall clock time:   9.1321492195129395
(PID.TID 0000.0001)          No. starts:           8
(PID.TID 0000.0001)           No. stops:           8
(PID.TID 0000.0001)   Seconds in section "GGL90_CALC [DO_OCEANIC_PHYS]":
(PID.TID 0000.0001)           User time:   5.7814502716064453
(PID.TID 0000.0001)         System time:   2.1646499633789062E-002
(PID.TID 0000.0001)     Wall clock time:   5.8599669933319092
(PID.TID 0000.0001)          No. starts:          96
(PID.TID 0000.0001)           No. stops:          96
(PID.TID 0000.0001)   Seconds in section "DYNAMICS            [FORWARD_STEP]":
(PID.TID 0000.0001)           User time:   28.244770050048828
(PID.TID 0000.0001)         System time:   2.1521568298339844E-002
(PID.TID 0000.0001)     Wall clock time:   28.379514932632446
(PID.TID 0000.0001)          No. starts:           8
(PID.TID 0000.0001)           No. stops:           8
(PID.TID 0000.0001)   Seconds in section "UPDATE_CG2D         [FORWARD_STEP]":
(PID.TID 0000.0001)           User time:   1.0042667388916016
(PID.TID 0000.0001)         System time:   3.4332275390625000E-005
(PID.TID 0000.0001)     Wall clock time:   1.0048360824584961
(PID.TID 0000.0001)          No. starts:           8
(PID.TID 0000.0001)           No. stops:           8
(PID.TID 0000.0001)   Seconds in section "SOLVE_FOR_PRESSURE  [FORWARD_STEP]":
(PID.TID 0000.0001)           User time:   3.4775314331054688
(PID.TID 0000.0001)         System time:   3.0221939086914062E-003
(PID.TID 0000.0001)     Wall clock time:   3.5611221790313721
(PID.TID 0000.0001)          No. starts:           8
(PID.TID 0000.0001)           No. stops:           8
(PID.TID 0000.0001)   Seconds in section "MOM_CORRECTION_STEP [FORWARD_STEP]":
(PID.TID 0000.0001)           User time:  0.61731910705566406
(PID.TID 0000.0001)         System time:   2.8896331787109375E-004
(PID.TID 0000.0001)     Wall clock time:  0.62029504776000977
(PID.TID 0000.0001)          No. starts:           8
(PID.TID 0000.0001)           No. stops:           8
(PID.TID 0000.0001)   Seconds in section "INTEGR_CONTINUITY   [FORWARD_STEP]":
(PID.TID 0000.0001)           User time:   1.2310047149658203
(PID.TID 0000.0001)         System time:   1.0490417480468750E-005
(PID.TID 0000.0001)     Wall clock time:   1.2317488193511963
(PID.TID 0000.0001)          No. starts:           8
(PID.TID 0000.0001)           No. stops:           8
(PID.TID 0000.0001)   Seconds in section "CALC_R_STAR         [FORWARD_STEP]":
(PID.TID 0000.0001)           User time:   7.9732894897460938E-002
(PID.TID 0000.0001)         System time:   1.1539459228515625E-004
(PID.TID 0000.0001)     Wall clock time:   7.9875946044921875E-002
(PID.TID 0000.0001)          No. starts:           8
(PID.TID 0000.0001)           No. stops:           8
(PID.TID 0000.0001)   Seconds in section "BLOCKING_EXCHANGES  [FORWARD_STEP]":
(PID.TID 0000.0001)           User time:   1.1641292572021484
(PID.TID 0000.0001)         System time:   3.4526824951171875E-002
(PID.TID 0000.0001)     Wall clock time:   1.1990919113159180
(PID.TID 0000.0001)          No. starts:          16
(PID.TID 0000.0001)           No. stops:          16
(PID.TID 0000.0001)   Seconds in section "THERMODYNAMICS      [FORWARD_STEP]":
(PID.TID 0000.0001)           User time:   30.432571411132812
(PID.TID 0000.0001)         System time:   2.5956153869628906E-002
(PID.TID 0000.0001)     Wall clock time:   30.771935224533081
(PID.TID 0000.0001)          No. starts:           8
(PID.TID 0000.0001)           No. stops:           8
(PID.TID 0000.0001)   Seconds in section "TRC_CORRECTION_STEP [FORWARD_STEP]":
(PID.TID 0000.0001)           User time:   8.3923339843750000E-005
(PID.TID 0000.0001)         System time:   4.7683715820312500E-006
(PID.TID 0000.0001)     Wall clock time:   7.2717666625976562E-005
(PID.TID 0000.0001)          No. starts:           8
(PID.TID 0000.0001)           No. stops:           8
(PID.TID 0000.0001)   Seconds in section "MONITOR             [FORWARD_STEP]":
(PID.TID 0000.0001)           User time:   6.3388671875000000
(PID.TID 0000.0001)         System time:   3.9072036743164062E-003
(PID.TID 0000.0001)     Wall clock time:   6.3699591159820557
(PID.TID 0000.0001)          No. starts:           8
(PID.TID 0000.0001)           No. stops:           8
(PID.TID 0000.0001)   Seconds in section "COST_TILE           [FORWARD_STEP]":
(PID.TID 0000.0001)           User time:   8.3923339843750000E-005
(PID.TID 0000.0001)         System time:   4.7683715820312500E-006
(PID.TID 0000.0001)     Wall clock time:   7.8678131103515625E-005
(PID.TID 0000.0001)          No. starts:           8
(PID.TID 0000.0001)           No. stops:           8
(PID.TID 0000.0001)   Seconds in section "DO_THE_MODEL_IO     [FORWARD_STEP]":
(PID.TID 0000.0001)           User time:   7.1694145202636719
(PID.TID 0000.0001)         System time:   1.7634897232055664
(PID.TID 0000.0001)     Wall clock time:   9.2272875308990479
(PID.TID 0000.0001)          No. starts:           8
(PID.TID 0000.0001)           No. stops:           8
(PID.TID 0000.0001)   Seconds in section "DO_WRITE_PICKUP     [FORWARD_STEP]":
(PID.TID 0000.0001)           User time:   2.0300712585449219
(PID.TID 0000.0001)         System time:   1.4068727493286133
(PID.TID 0000.0001)     Wall clock time:   4.3664622306823730
(PID.TID 0000.0001)          No. starts:           8
(PID.TID 0000.0001)           No. stops:           8
(PID.TID 0000.0001)   Seconds in section "COST_AVERAGESFIELDS [THE_MAIN_LOOP]":
(PID.TID 0000.0001)           User time:  0.68118286132812500
(PID.TID 0000.0001)         System time:  0.14794731140136719
(PID.TID 0000.0001)     Wall clock time:  0.83621692657470703
(PID.TID 0000.0001)          No. starts:           1
(PID.TID 0000.0001)           No. stops:           1
(PID.TID 0000.0001)   Seconds in section "PROFILES_INLOOP    [THE_MAIN_LOOP]":
(PID.TID 0000.0001)           User time:   7.1716308593750000E-004
(PID.TID 0000.0001)         System time:   0.0000000000000000
(PID.TID 0000.0001)     Wall clock time:   7.2002410888671875E-004
(PID.TID 0000.0001)          No. starts:           1
(PID.TID 0000.0001)           No. stops:           1
(PID.TID 0000.0001)   Seconds in section "ECCO_COST_DRIVER   [THE_MAIN_LOOP]":
(PID.TID 0000.0001)           User time:   4.5725250244140625
(PID.TID 0000.0001)         System time:   1.9948501586914062
(PID.TID 0000.0001)     Wall clock time:   11.780397891998291
(PID.TID 0000.0001)          No. starts:           1
(PID.TID 0000.0001)           No. stops:           1
(PID.TID 0000.0001)   Seconds in section "COST_GENCOST_ALL    [ECCO SPIN-DOWN]":
(PID.TID 0000.0001)           User time:   3.7020721435546875
(PID.TID 0000.0001)         System time:   1.5313825607299805
(PID.TID 0000.0001)     Wall clock time:   8.5863080024719238
(PID.TID 0000.0001)          No. starts:           1
(PID.TID 0000.0001)           No. stops:           1
(PID.TID 0000.0001)   Seconds in section "CTRL_COST_DRIVER [ECCO SPIN-DOWN]":
(PID.TID 0000.0001)           User time:  0.87039184570312500
(PID.TID 0000.0001)         System time:  0.46346282958984375
(PID.TID 0000.0001)     Wall clock time:   3.1940279006958008
(PID.TID 0000.0001)          No. starts:           1
(PID.TID 0000.0001)           No. stops:           1
(PID.TID 0000.0001)   Seconds in section "COST_FINAL         [ADJOINT SPIN-DOWN]":
(PID.TID 0000.0001)           User time:   1.4801025390625000E-003
(PID.TID 0000.0001)         System time:   1.2874603271484375E-004
(PID.TID 0000.0001)     Wall clock time:   1.6160011291503906E-003
(PID.TID 0000.0001)          No. starts:           1
(PID.TID 0000.0001)           No. stops:           1
(PID.TID 0000.0001) // ======================================================
(PID.TID 0000.0001) // Tile <-> Tile communication statistics
(PID.TID 0000.0001) // ======================================================
(PID.TID 0000.0001) // o Tile number: 000001
(PID.TID 0000.0001) //         No. X exchanges =              0
(PID.TID 0000.0001) //            Max. X spins =              0
(PID.TID 0000.0001) //            Min. X spins =     1000000000
(PID.TID 0000.0001) //          Total. X spins =              0
(PID.TID 0000.0001) //            Avg. X spins =       0.00E+00
(PID.TID 0000.0001) //         No. Y exchanges =              0
(PID.TID 0000.0001) //            Max. Y spins =              0
(PID.TID 0000.0001) //            Min. Y spins =     1000000000
(PID.TID 0000.0001) //          Total. Y spins =              0
(PID.TID 0000.0001) //            Avg. Y spins =       0.00E+00
(PID.TID 0000.0001) // o Tile number: 000002
(PID.TID 0000.0001) //         No. X exchanges =              0
(PID.TID 0000.0001) //            Max. X spins =              0
(PID.TID 0000.0001) //            Min. X spins =     1000000000
(PID.TID 0000.0001) //          Total. X spins =              0
(PID.TID 0000.0001) //            Avg. X spins =       0.00E+00
(PID.TID 0000.0001) //         No. Y exchanges =              0
(PID.TID 0000.0001) //            Max. Y spins =              0
(PID.TID 0000.0001) //            Min. Y spins =     1000000000
(PID.TID 0000.0001) //          Total. Y spins =              0
(PID.TID 0000.0001) //            Avg. Y spins =       0.00E+00
(PID.TID 0000.0001) // o Tile number: 000003
(PID.TID 0000.0001) //         No. X exchanges =              0
(PID.TID 0000.0001) //            Max. X spins =              0
(PID.TID 0000.0001) //            Min. X spins =     1000000000
(PID.TID 0000.0001) //          Total. X spins =              0
(PID.TID 0000.0001) //            Avg. X spins =       0.00E+00
(PID.TID 0000.0001) //         No. Y exchanges =              0
(PID.TID 0000.0001) //            Max. Y spins =              0
(PID.TID 0000.0001) //            Min. Y spins =     1000000000
(PID.TID 0000.0001) //          Total. Y spins =              0
(PID.TID 0000.0001) //            Avg. Y spins =       0.00E+00
(PID.TID 0000.0001) // o Tile number: 000004
(PID.TID 0000.0001) //         No. X exchanges =              0
(PID.TID 0000.0001) //            Max. X spins =              0
(PID.TID 0000.0001) //            Min. X spins =     1000000000
(PID.TID 0000.0001) //          Total. X spins =              0
(PID.TID 0000.0001) //            Avg. X spins =       0.00E+00
(PID.TID 0000.0001) //         No. Y exchanges =              0
(PID.TID 0000.0001) //            Max. Y spins =              0
(PID.TID 0000.0001) //            Min. Y spins =     1000000000
(PID.TID 0000.0001) //          Total. Y spins =              0
(PID.TID 0000.0001) //            Avg. Y spins =       0.00E+00
(PID.TID 0000.0001) // o Tile number: 000005
(PID.TID 0000.0001) //         No. X exchanges =              0
(PID.TID 0000.0001) //            Max. X spins =              0
(PID.TID 0000.0001) //            Min. X spins =     1000000000
(PID.TID 0000.0001) //          Total. X spins =              0
(PID.TID 0000.0001) //            Avg. X spins =       0.00E+00
(PID.TID 0000.0001) //         No. Y exchanges =              0
(PID.TID 0000.0001) //            Max. Y spins =              0
(PID.TID 0000.0001) //            Min. Y spins =     1000000000
(PID.TID 0000.0001) //          Total. Y spins =              0
(PID.TID 0000.0001) //            Avg. Y spins =       0.00E+00
(PID.TID 0000.0001) // o Tile number: 000006
(PID.TID 0000.0001) //         No. X exchanges =              0
(PID.TID 0000.0001) //            Max. X spins =              0
(PID.TID 0000.0001) //            Min. X spins =     1000000000
(PID.TID 0000.0001) //          Total. X spins =              0
(PID.TID 0000.0001) //            Avg. X spins =       0.00E+00
(PID.TID 0000.0001) //         No. Y exchanges =              0
(PID.TID 0000.0001) //            Max. Y spins =              0
(PID.TID 0000.0001) //            Min. Y spins =     1000000000
(PID.TID 0000.0001) //          Total. Y spins =              0
(PID.TID 0000.0001) //            Avg. Y spins =       0.00E+00
(PID.TID 0000.0001) // o Tile number: 000007
(PID.TID 0000.0001) //         No. X exchanges =              0
(PID.TID 0000.0001) //            Max. X spins =              0
(PID.TID 0000.0001) //            Min. X spins =     1000000000
(PID.TID 0000.0001) //          Total. X spins =              0
(PID.TID 0000.0001) //            Avg. X spins =       0.00E+00
(PID.TID 0000.0001) //         No. Y exchanges =              0
(PID.TID 0000.0001) //            Max. Y spins =              0
(PID.TID 0000.0001) //            Min. Y spins =     1000000000
(PID.TID 0000.0001) //          Total. Y spins =              0
(PID.TID 0000.0001) //            Avg. Y spins =       0.00E+00
(PID.TID 0000.0001) // o Tile number: 000008
(PID.TID 0000.0001) //         No. X exchanges =              0
(PID.TID 0000.0001) //            Max. X spins =              0
(PID.TID 0000.0001) //            Min. X spins =     1000000000
(PID.TID 0000.0001) //          Total. X spins =              0
(PID.TID 0000.0001) //            Avg. X spins =       0.00E+00
(PID.TID 0000.0001) //         No. Y exchanges =              0
(PID.TID 0000.0001) //            Max. Y spins =              0
(PID.TID 0000.0001) //            Min. Y spins =     1000000000
(PID.TID 0000.0001) //          Total. Y spins =              0
(PID.TID 0000.0001) //            Avg. Y spins =       0.00E+00
(PID.TID 0000.0001) // o Tile number: 000009
(PID.TID 0000.0001) //         No. X exchanges =              0
(PID.TID 0000.0001) //            Max. X spins =              0
(PID.TID 0000.0001) //            Min. X spins =     1000000000
(PID.TID 0000.0001) //          Total. X spins =              0
(PID.TID 0000.0001) //            Avg. X spins =       0.00E+00
(PID.TID 0000.0001) //         No. Y exchanges =              0
(PID.TID 0000.0001) //            Max. Y spins =              0
(PID.TID 0000.0001) //            Min. Y spins =     1000000000
(PID.TID 0000.0001) //          Total. Y spins =              0
(PID.TID 0000.0001) //            Avg. Y spins =       0.00E+00
(PID.TID 0000.0001) // o Tile number: 000010
(PID.TID 0000.0001) //         No. X exchanges =              0
(PID.TID 0000.0001) //            Max. X spins =              0
(PID.TID 0000.0001) //            Min. X spins =     1000000000
(PID.TID 0000.0001) //          Total. X spins =              0
(PID.TID 0000.0001) //            Avg. X spins =       0.00E+00
(PID.TID 0000.0001) //         No. Y exchanges =              0
(PID.TID 0000.0001) //            Max. Y spins =              0
(PID.TID 0000.0001) //            Min. Y spins =     1000000000
(PID.TID 0000.0001) //          Total. Y spins =              0
(PID.TID 0000.0001) //            Avg. Y spins =       0.00E+00
(PID.TID 0000.0001) // o Tile number: 000011
(PID.TID 0000.0001) //         No. X exchanges =              0
(PID.TID 0000.0001) //            Max. X spins =              0
(PID.TID 0000.0001) //            Min. X spins =     1000000000
(PID.TID 0000.0001) //          Total. X spins =              0
(PID.TID 0000.0001) //            Avg. X spins =       0.00E+00
(PID.TID 0000.0001) //         No. Y exchanges =              0
(PID.TID 0000.0001) //            Max. Y spins =              0
(PID.TID 0000.0001) //            Min. Y spins =     1000000000
(PID.TID 0000.0001) //          Total. Y spins =              0
(PID.TID 0000.0001) //            Avg. Y spins =       0.00E+00
(PID.TID 0000.0001) // o Tile number: 000012
(PID.TID 0000.0001) //         No. X exchanges =              0
(PID.TID 0000.0001) //            Max. X spins =              0
(PID.TID 0000.0001) //            Min. X spins =     1000000000
(PID.TID 0000.0001) //          Total. X spins =              0
(PID.TID 0000.0001) //            Avg. X spins =       0.00E+00
(PID.TID 0000.0001) //         No. Y exchanges =              0
(PID.TID 0000.0001) //            Max. Y spins =              0
(PID.TID 0000.0001) //            Min. Y spins =     1000000000
(PID.TID 0000.0001) //          Total. Y spins =              0
(PID.TID 0000.0001) //            Avg. Y spins =       0.00E+00
(PID.TID 0000.0001) // o Thread number: 000001
(PID.TID 0000.0001) //            No. barriers =          37820
(PID.TID 0000.0001) //      Max. barrier spins =              1
(PID.TID 0000.0001) //      Min. barrier spins =              1
(PID.TID 0000.0001) //     Total barrier spins =          37820
(PID.TID 0000.0001) //      Avg. barrier spins =       1.00E+00
PROGRAM MAIN: Execution ended Normally
