(PID.TID 0000.0001) 
(PID.TID 0000.0001) // ======================================================
(PID.TID 0000.0001) //                      MITgcm UV
(PID.TID 0000.0001) //                      =========
(PID.TID 0000.0001) // ======================================================
(PID.TID 0000.0001) // execution environment starting up...
(PID.TID 0000.0001) 
(PID.TID 0000.0001) // MITgcmUV version:  checkpoint67u
(PID.TID 0000.0001) // Build user:        jm_c
(PID.TID 0000.0001) // Build host:        villon
(PID.TID 0000.0001) // Build date:        Sat Jan 23 13:34:05 EST 2021
(PID.TID 0000.0001) 
(PID.TID 0000.0001) // =======================================================
(PID.TID 0000.0001) // Execution Environment parameter file "eedata"
(PID.TID 0000.0001) // =======================================================
(PID.TID 0000.0001) ># Example "eedata" file
(PID.TID 0000.0001) ># Lines beginning "#" are comments
(PID.TID 0000.0001) >#  nTx      :: No. threads per process in X
(PID.TID 0000.0001) >#  nTy      :: No. threads per process in Y
(PID.TID 0000.0001) ># debugMode :: print debug msg (sequence of S/R calls)
(PID.TID 0000.0001) > &EEPARMS
(PID.TID 0000.0001) > /
(PID.TID 0000.0001) ># Note: Some systems use & as the namelist terminator (as shown here).
(PID.TID 0000.0001) >#       Other systems use a / character.
(PID.TID 0000.0001) 
(PID.TID 0000.0001) // =======================================================
(PID.TID 0000.0001) // Computational Grid Specification ( see files "SIZE.h" )
(PID.TID 0000.0001) //                                  ( and "eedata"       )
(PID.TID 0000.0001) // =======================================================
(PID.TID 0000.0001)      nPx =    1 ; /* No. processes in X */
(PID.TID 0000.0001)      nPy =    1 ; /* No. processes in Y */
(PID.TID 0000.0001)      nSx =    1 ; /* No. tiles in X per process */
(PID.TID 0000.0001)      nSy =    1 ; /* No. tiles in Y per process */
(PID.TID 0000.0001)      sNx =    3 ; /* Tile size in X */
(PID.TID 0000.0001)      sNy =  200 ; /* Tile size in Y */
(PID.TID 0000.0001)      OLx =    3 ; /* Tile overlap distance in X */
(PID.TID 0000.0001)      OLy =    3 ; /* Tile overlap distance in Y */
(PID.TID 0000.0001)      nTx =    1 ; /* No. threads in X per process */
(PID.TID 0000.0001)      nTy =    1 ; /* No. threads in Y per process */
(PID.TID 0000.0001)       Nr =   90 ; /* No. levels in the vertical   */
(PID.TID 0000.0001)       Nx =    3 ; /* Total domain size in X ( = nPx*nSx*sNx ) */
(PID.TID 0000.0001)       Ny =  200 ; /* Total domain size in Y ( = nPy*nSy*sNy ) */
(PID.TID 0000.0001)   nTiles =    1 ; /* Total no. tiles per process ( = nSx*nSy ) */
(PID.TID 0000.0001)   nProcs =    1 ; /* Total no. processes ( = nPx*nPy ) */
(PID.TID 0000.0001) nThreads =    1 ; /* Total no. threads per process ( = nTx*nTy ) */
(PID.TID 0000.0001) usingMPI =    F ; /* Flag used to control whether MPI is in use */
(PID.TID 0000.0001)                   /*  note: To execute a program with MPI calls */
(PID.TID 0000.0001)                   /*  it must be launched appropriately e.g     */
(PID.TID 0000.0001)                   /*  "mpirun -np 64 ......"                    */
(PID.TID 0000.0001) useCoupler=   F ; /* Flag used to control communications with   */
(PID.TID 0000.0001)                   /*  other model components, through a coupler */
(PID.TID 0000.0001) useNest2W_parent =    F ;/* Control 2-W Nesting comm */
(PID.TID 0000.0001) useNest2W_child  =    F ;/* Control 2-W Nesting comm */
(PID.TID 0000.0001) debugMode =    F ; /* print debug msg. (sequence of S/R calls)  */
(PID.TID 0000.0001) printMapIncludesZeros=    F ; /* print zeros in Std.Output maps */
(PID.TID 0000.0001) maxLengthPrt1D=   65 /* maxLength of 1D array printed to StdOut */
(PID.TID 0000.0001) 
(PID.TID 0000.0001) // ======================================================
(PID.TID 0000.0001) // Mapping of tiles to threads
(PID.TID 0000.0001) // ======================================================
(PID.TID 0000.0001) // -o- Thread   1, tiles (   1:   1,   1:   1)
(PID.TID 0000.0001) 
(PID.TID 0000.0001) // ======================================================
(PID.TID 0000.0001) // Tile <-> Tile connectvity table
(PID.TID 0000.0001) // ======================================================
(PID.TID 0000.0001) // Tile number: 000001 (process no. = 000000)
(PID.TID 0000.0001) //        WEST: Tile = 000001, Process = 000000, Comm = put
(PID.TID 0000.0001) //                bi = 000001, bj = 000001
(PID.TID 0000.0001) //        EAST: Tile = 000001, Process = 000000, Comm = put
(PID.TID 0000.0001) //                bi = 000001, bj = 000001
(PID.TID 0000.0001) //       SOUTH: Tile = 000001, Process = 000000, Comm = put
(PID.TID 0000.0001) //                bi = 000001, bj = 000001
(PID.TID 0000.0001) //       NORTH: Tile = 000001, Process = 000000, Comm = put
(PID.TID 0000.0001) //                bi = 000001, bj = 000001
(PID.TID 0000.0001) 
(PID.TID 0000.0001)  INI_PARMS: opening model parameter file "data"
(PID.TID 0000.0001)  OPEN_COPY_DATA_FILE: opening file data
(PID.TID 0000.0001) // =======================================================
(PID.TID 0000.0001) // Parameter file "data"
(PID.TID 0000.0001) // =======================================================
(PID.TID 0000.0001) ># ====================
(PID.TID 0000.0001) ># | Model parameters |
(PID.TID 0000.0001) ># ====================
(PID.TID 0000.0001) >#
(PID.TID 0000.0001) ># Continuous equation parameters
(PID.TID 0000.0001) > &PARM01
(PID.TID 0000.0001) > tRef = 90*-1.9,
(PID.TID 0000.0001) > sRef = 90*34.4,
(PID.TID 0000.0001) > viscAr=1.E-3,
(PID.TID 0000.0001) > viscAhGrid=0.2,
(PID.TID 0000.0001) > viscA4Grid=0.02,
(PID.TID 0000.0001) > no_slip_sides=.FALSE.,
(PID.TID 0000.0001) > no_slip_bottom=.FALSE.,
(PID.TID 0000.0001) > diffKhT= 100.0,
(PID.TID 0000.0001) > diffKrT=5.E-5,
(PID.TID 0000.0001) > diffKhS= 100.0,
(PID.TID 0000.0001) > diffKrS=5.E-5,
(PID.TID 0000.0001) > bottomDragQuadratic=2.5E-3,
(PID.TID 0000.0001) > staggerTimestep = .TRUE.,
(PID.TID 0000.0001) > tempAdvScheme=30,
(PID.TID 0000.0001) > saltAdvScheme=30,
(PID.TID 0000.0001) > vectorInvariantMomentum = .TRUE.,
(PID.TID 0000.0001) >### momImplVertAdv=.TRUE.,
(PID.TID 0000.0001) > tempImplVertAdv=.TRUE.,
(PID.TID 0000.0001) > saltImplVertAdv=.TRUE.,
(PID.TID 0000.0001) >#ivdc_kappa = 0.005.,
(PID.TID 0000.0001) > implicitDiffusion = .TRUE.,
(PID.TID 0000.0001) > implicitViscosity = .TRUE.,
(PID.TID 0000.0001) > implicitFreeSurface=.TRUE.,
(PID.TID 0000.0001) > useRealFreshWaterFlux= .TRUE.,
(PID.TID 0000.0001) > exactConserv=.TRUE.,
(PID.TID 0000.0001) > nonlinFreeSurf=4,
(PID.TID 0000.0001) > hFacInf=0.2,
(PID.TID 0000.0001) > hFacSup=2.0,
(PID.TID 0000.0001) > hFacMin=0.2,
(PID.TID 0000.0001) >#-
(PID.TID 0000.0001) > eosType='JMD95Z',
(PID.TID 0000.0001) > HeatCapacity_Cp= 3974.0,
(PID.TID 0000.0001) > rhoConst=1000.,
(PID.TID 0000.0001) > gravity=9.81,
(PID.TID 0000.0001) >#- fCori is used in shelfice_thermodynamics.F when SHELFICEuseGammaFrict=T
(PID.TID 0000.0001) >#  so that useCoriolis=F is not enough to cancel completly rotation
(PID.TID 0000.0001) > useCoriolis=.FALSE.,
(PID.TID 0000.0001) > selectCoriMap = 0,
(PID.TID 0000.0001) > f0 = 0.0,
(PID.TID 0000.0001) >#-
(PID.TID 0000.0001) > readBinaryPrec=64,
(PID.TID 0000.0001) >#writeBinaryPrec=64,
(PID.TID 0000.0001) > useSingleCpuIO=.TRUE.,
(PID.TID 0000.0001) > globalFiles=.TRUE.,
(PID.TID 0000.0001) > plotLevel = 0,
(PID.TID 0000.0001) > /
(PID.TID 0000.0001) >
(PID.TID 0000.0001) ># Elliptic solver parameters
(PID.TID 0000.0001) > &PARM02
(PID.TID 0000.0001) > cg2dMaxIters=300,
(PID.TID 0000.0001) > cg2dTargetResidual=1.E-11,
(PID.TID 0000.0001) > /
(PID.TID 0000.0001) >
(PID.TID 0000.0001) ># Time stepping parameters
(PID.TID 0000.0001) > &PARM03
(PID.TID 0000.0001) > nIter0=11395,
(PID.TID 0000.0001) > nTimeSteps=20,
(PID.TID 0000.0001) > deltaT= 300.,
(PID.TID 0000.0001) > forcing_In_AB=.FALSE.,
(PID.TID 0000.0001) > abEps=0.1,
(PID.TID 0000.0001) > cAdjFreq = -1.,
(PID.TID 0000.0001) > pChkptFreq=31104000.,
(PID.TID 0000.0001) > chkptFreq=  7776000.,
(PID.TID 0000.0001) > dumpFreq = 3000.,
(PID.TID 0000.0001) > monitorSelect=1,
(PID.TID 0000.0001) > monitorFreq= 1.,
(PID.TID 0000.0001) > /
(PID.TID 0000.0001) >
(PID.TID 0000.0001) ># Gridding parameters
(PID.TID 0000.0001) > &PARM04
(PID.TID 0000.0001) > useMin4hFacEdges=.TRUE.,
(PID.TID 0000.0001) > usingSphericalPolarGrid=.TRUE.,
(PID.TID 0000.0001) > delR=90*10.,
(PID.TID 0000.0001) > delX=3*0.125,
(PID.TID 0000.0001) > delY=200*0.0078125,
(PID.TID 0000.0001) ># delYFile='dlat.bin',
(PID.TID 0000.0001) > xgOrigin = -105.5,
(PID.TID 0000.0001) > ygOrigin =  -75.4457,
(PID.TID 0000.0001) > /
(PID.TID 0000.0001) >
(PID.TID 0000.0001) ># Input datasets
(PID.TID 0000.0001) > &PARM05
(PID.TID 0000.0001) > bathyFile='bathy.box',
(PID.TID 0000.0001) > hydrogThetaFile='theta.init',	
(PID.TID 0000.0001) > hydrogSaltFile='salt.init',
(PID.TID 0000.0001) > pSurfInitFile='etainit.round.bin',
(PID.TID 0000.0001) > /
(PID.TID 0000.0001) 
(PID.TID 0000.0001)  INI_PARMS ; starts to read PARM01
(PID.TID 0000.0001)  INI_PARMS ; read PARM01 : OK
(PID.TID 0000.0001)  INI_PARMS ; starts to read PARM02
(PID.TID 0000.0001)  INI_PARMS ; read PARM02 : OK
(PID.TID 0000.0001)  INI_PARMS ; starts to read PARM03
(PID.TID 0000.0001)  INI_PARMS ; read PARM03 : OK
(PID.TID 0000.0001)  INI_PARMS ; starts to read PARM04
(PID.TID 0000.0001)  INI_PARMS ; read PARM04 : OK
(PID.TID 0000.0001)  INI_PARMS ; starts to read PARM05
(PID.TID 0000.0001)  INI_PARMS ; read PARM05 : OK
(PID.TID 0000.0001)  INI_PARMS: finished reading file "data"
(PID.TID 0000.0001)  PACKAGES_BOOT: opening data.pkg
(PID.TID 0000.0001)  OPEN_COPY_DATA_FILE: opening file data.pkg
(PID.TID 0000.0001) // =======================================================
(PID.TID 0000.0001) // Parameter file "data.pkg"
(PID.TID 0000.0001) // =======================================================
(PID.TID 0000.0001) ># Packages
(PID.TID 0000.0001) > &PACKAGES
(PID.TID 0000.0001) > useOBCS      = .TRUE.,
(PID.TID 0000.0001) > useShelfIce  = .TRUE.,
(PID.TID 0000.0001) > useStreamIce = .TRUE.,
(PID.TID 0000.0001) > useDiagnostics=.TRUE.,
(PID.TID 0000.0001) > /
(PID.TID 0000.0001) 
(PID.TID 0000.0001)  PACKAGES_BOOT: finished reading data.pkg
(PID.TID 0000.0001)  PACKAGES_BOOT: On/Off package Summary
 --------  pkgs with a standard "usePKG" On/Off switch in "data.pkg":  --------
 pkg/obcs                 compiled   and   used ( useOBCS                  = T )
 pkg/shelfice             compiled   and   used ( useShelfIce              = T )
 pkg/streamice            compiled   and   used ( useStreamIce             = T )
 pkg/diagnostics          compiled   and   used ( useDiagnostics           = T )
 -------- pkgs without standard "usePKG" On/Off switch in "data.pkg":  --------
 pkg/generic_advdiff      compiled   and   used ( useGAD                   = T )
 pkg/mom_common           compiled   and   used ( momStepping              = T )
 pkg/mom_vecinv           compiled   and   used ( +vectorInvariantMomentum = T )
 pkg/mom_fluxform         compiled but not used ( & not vectorInvariantMom = F )
 pkg/monitor              compiled   and   used ( monitorFreq > 0.         = T )
 pkg/debug                compiled but not used ( debugMode                = F )
 pkg/rw                   compiled   and   used
 pkg/mdsio                compiled   and   used
(PID.TID 0000.0001)  PACKAGES_BOOT: End of package Summary
(PID.TID 0000.0001) 
(PID.TID 0000.0001)  OBCS_READPARMS: opening data.obcs
(PID.TID 0000.0001)  OPEN_COPY_DATA_FILE: opening file data.obcs
(PID.TID 0000.0001) // =======================================================
(PID.TID 0000.0001) // Parameter file "data.obcs"
(PID.TID 0000.0001) // =======================================================
(PID.TID 0000.0001) ># Open-boundaries
(PID.TID 0000.0001) > &OBCS_PARM01
(PID.TID 0000.0001) > OB_Jnorth=3*200,
(PID.TID 0000.0001) > useOBCSprescribe=.TRUE.,
(PID.TID 0000.0001) > useOBCSsponge=.FALSE.,
(PID.TID 0000.0001) ># OBWuFile='uvel.obw',
(PID.TID 0000.0001) > OBNvFile='vvel.obw',
(PID.TID 0000.0001) > OBNtFile='theta.obw',
(PID.TID 0000.0001) > OBNsFile='salt.obw',
(PID.TID 0000.0001) > useOrlanskiNorth=.FALSE.,
(PID.TID 0000.0001) > useOBCSbalance=.TRUE.,
(PID.TID 0000.0001) > OBCS_balanceFacN=1.,
(PID.TID 0000.0001) > /
(PID.TID 0000.0001) >
(PID.TID 0000.0001) ># Orlanski parameters
(PID.TID 0000.0001) > &OBCS_PARM02
(PID.TID 0000.0001) >#Cmax=0.45,
(PID.TID 0000.0001) >#cVelTimeScale=1000.,
(PID.TID 0000.0001) > /
(PID.TID 0000.0001) >
(PID.TID 0000.0001) ># Sponge layer parameters
(PID.TID 0000.0001) > &OBCS_PARM03
(PID.TID 0000.0001) >#spongeThickness = 20,
(PID.TID 0000.0001) >#Vrelaxobcsbound = 864000.,
(PID.TID 0000.0001) >#Urelaxobcsbound = 864000.,
(PID.TID 0000.0001) > /
(PID.TID 0000.0001) 
(PID.TID 0000.0001)  OBCS_READPARMS: finished reading data.obcs
(PID.TID 0000.0001)  OB_indexUnset = /* unset OB index value (i.e. no OB) */
(PID.TID 0000.0001)                       0
(PID.TID 0000.0001)     ;
(PID.TID 0000.0001)  Northern OB global indices : OB_Jnorth =
(PID.TID 0000.0001)     3 @      200                            /* I =  1:  3 */
(PID.TID 0000.0001)  Southern OB global indices : OB_Jsouth =
(PID.TID 0000.0001)     3 @        0                            /* I =  1:  3 */
(PID.TID 0000.0001)  Eastern  OB global indices : OB_Ieast =
(PID.TID 0000.0001)   200 @        0                            /* J =  1:200 */
(PID.TID 0000.0001)  Western  OB global indices : OB_Iwest =
(PID.TID 0000.0001)   200 @        0                            /* J =  1:200 */
(PID.TID 0000.0001) 
(PID.TID 0000.0001) STREAMICE_READPARMS: opening data.streamice
(PID.TID 0000.0001)  OPEN_COPY_DATA_FILE: opening file data.streamice
(PID.TID 0000.0001) // =======================================================
(PID.TID 0000.0001) // Parameter file "data.streamice"
(PID.TID 0000.0001) // =======================================================
(PID.TID 0000.0001) ># ====================================
(PID.TID 0000.0001) ># | Parameters for STREAMICE package |
(PID.TID 0000.0001) ># ====================================
(PID.TID 0000.0001) > &STREAMICE_PARM01
(PID.TID 0000.0001) > streamice_maxnliter_cpl = 1,
(PID.TID 0000.0001) > streamice_maxcgiter_cpl = 700,
(PID.TID 0000.0001) > STREAMICE_allow_cpl=.true.,
(PID.TID 0000.0001) > streamice_vel_update = 43200.,
(PID.TID 0000.0001) > streamice_density = 917.,
(PID.TID 0000.0001) > streamice_density_ocean_avg = 1028.,
(PID.TID 0000.0001) > B_glen_isothermal = 700.,
(PID.TID 0000.0001) > C_basal_fric_const = 5.,
(PID.TID 0000.0001) > n_glen = 3.0,
(PID.TID 0000.0001) > n_basal_friction = 1.,
(PID.TID 0000.0001) > streamice_diagnostic_only=.false.,
(PID.TID 0000.0001) > eps_glen_min = 1.0e-12,
(PID.TID 0000.0001) > eps_u_min = 1.0e-12,
(PID.TID 0000.0001) > streamice_cg_tol = 1.0e-6,
(PID.TID 0000.0001) > STREAMICE_lower_cg_tol = .true.,
(PID.TID 0000.0001) > streamice_nonlin_tol = .000001,
(PID.TID 0000.0001) > streamice_nonlin_tol_fp = .00000001,
(PID.TID 0000.0001) > streamice_max_cg_iter = 700,
(PID.TID 0000.0001) > streamice_max_nl_iter = 70,
(PID.TID 0000.0001) > STREAMICE_calve_to_mask = .false.,
(PID.TID 0000.0001) > streamice_CFL_factor = 0.5,
(PID.TID 0000.0001) > STREAMICE_dump_mdsio = .true.,
(PID.TID 0000.0001) > streamice_bg_surf_slope_x = 0.,
(PID.TID 0000.0001) > STREAMICEthickInit='FILE',
(PID.TID 0000.0001) > STREAMICEthickFile='h0.bin',
(PID.TID 0000.0001) > STREAMICEtopogFile='bathy.box',
(PID.TID 0000.0001) > STREAMICEuFaceBdryFile = 'ufacemask3.box',
(PID.TID 0000.0001) > STREAMICEvFaceBdryFile = 'vfacemask3.box',
(PID.TID 0000.0001) ># STREAMICEvMassFluxFile='vmassflux3.box',
(PID.TID 0000.0001) > STREAMICEvDirichValsFile='vdirich.box',
(PID.TID 0000.0001) > STREAMICEhmaskFile = 'hmask3.box',
(PID.TID 0000.0001) > STREAMICEHBCyFile = 'HBCy.box',
(PID.TID 0000.0001) > STREAMICEbasalTracConfig='UNIFORM',
(PID.TID 0000.0001) > STREAMICEGlenConstConfig='UNIFORM',
(PID.TID 0000.0001) > STREAMICE_chkfixedptconvergence=.true.,
(PID.TID 0000.0001) > STREAMICE_chkresidconvergence=.false.,
(PID.TID 0000.0001) > streamice_buttr_width=200.e3,
(PID.TID 0000.0001) > useStreamiceFlowlineButtr=.true.,
(PID.TID 0000.0001) > /
(PID.TID 0000.0001) >
(PID.TID 0000.0001) > &STREAMICE_PARM02
(PID.TID 0000.0001) > shelf_max_draft = 1300.0,
(PID.TID 0000.0001) > shelf_min_draft = 300.0,
(PID.TID 0000.0001) > shelf_edge_pos = 70.0e3,
(PID.TID 0000.0001) > shelf_slope_scale = 62.0e3,
(PID.TID 0000.0001) > shelf_flat_width = 20.0e3,
(PID.TID 0000.0001) > /
(PID.TID 0000.0001) >
(PID.TID 0000.0001) ># &STREAMICE_PARMPETSC
(PID.TID 0000.0001) ># PETSC_SOLVER_TYPE = 'CG',
(PID.TID 0000.0001) ># PETSC_PRECOND_TYPE = 'GAMG',
(PID.TID 0000.0001) ># &
(PID.TID 0000.0001) >
(PID.TID 0000.0001) > &STREAMICE_PARM03
(PID.TID 0000.0001) > min_x_noflow_north = -200.0,
(PID.TID 0000.0001) > max_x_noflow_north = 0.0,
(PID.TID 0000.0001) > min_x_noflow_south = -200.0,
(PID.TID 0000.0001) > max_x_noflow_south = 0.0,
(PID.TID 0000.0001) > min_y_noflow_WEST = 0.0,
(PID.TID 0000.0001) > max_y_noflow_WEST = 0.0,
(PID.TID 0000.0001) > min_y_noflow_EAST = -180.0,
(PID.TID 0000.0001) > max_y_noflow_EAST = 0.0,
(PID.TID 0000.0001) > min_x_noStress_NORTH = 0.0e3,
(PID.TID 0000.0001) > max_x_noStress_NORTH = 0.0e3,
(PID.TID 0000.0001) > min_x_noStress_SOUTH = 0.0e3,
(PID.TID 0000.0001) > max_x_noStress_SOUTH = 0.0e3,
(PID.TID 0000.0001) > min_y_noStress_WEST = -1.0,
(PID.TID 0000.0001) > max_y_noStress_WEST = -1.0,
(PID.TID 0000.0001) > min_y_noStress_EAST = -1.0,
(PID.TID 0000.0001) > max_y_noStress_EAST = -1.0,
(PID.TID 0000.0001) > min_x_FluxBdry_NORTH = -1.0,
(PID.TID 0000.0001) > max_x_FluxBdry_NORTH = -1.0,
(PID.TID 0000.0001) > min_x_FluxBdry_SOUTH = -1.0,
(PID.TID 0000.0001) > max_x_FluxBdry_SOUTH = -1.0,
(PID.TID 0000.0001) > min_y_FluxBdry_WEST = 0.0,
(PID.TID 0000.0001) > max_y_FluxBdry_WEST = 0.0,
(PID.TID 0000.0001) > min_y_FluxBdry_EAST = -180.0,
(PID.TID 0000.0001) > max_y_FluxBdry_EAST = 0.0,
(PID.TID 0000.0001) > min_x_Dirich_NORTH = -1.0,
(PID.TID 0000.0001) > max_x_Dirich_NORTH = -1.0,
(PID.TID 0000.0001) > min_x_Dirich_SOUTH = -1.0,
(PID.TID 0000.0001) > max_x_Dirich_SOUTH = -1.0,
(PID.TID 0000.0001) > min_y_Dirich_WEST = -1.0,
(PID.TID 0000.0001) > max_y_Dirich_WEST = -1.0,
(PID.TID 0000.0001) > min_y_Dirich_EAST = -1.0,
(PID.TID 0000.0001) > max_y_Dirich_EAST = -1.0,
(PID.TID 0000.0001) > min_x_CFBC_NORTH = -1.0,
(PID.TID 0000.0001) > max_x_CFBC_NORTH = -1.0,
(PID.TID 0000.0001) > min_x_CFBC_SOUTH = -1.0,
(PID.TID 0000.0001) > max_x_CFBC_SOUTH = -1.0,
(PID.TID 0000.0001) > min_y_CFBC_WEST = -180.0,
(PID.TID 0000.0001) > max_y_CFBC_WEST = 0.0,
(PID.TID 0000.0001) > min_y_CFBC_EAST = 0.0,
(PID.TID 0000.0001) > max_y_CFBC_EAST = 0.0e3,
(PID.TID 0000.0001) > flux_bdry_val_EAST =1.5e6,
(PID.TID 0000.0001) > STREAMICE_NS_periodic = .false.,
(PID.TID 0000.0001) > STREAMICE_EW_periodic = .false.,
(PID.TID 0000.0001) > /
(PID.TID 0000.0001) 
(PID.TID 0000.0001) STREAMICE_READPARMS: read first param block
(PID.TID 0000.0001) STREAMICE_READPARMS: read third param block
(PID.TID 0000.0001)  SHELFICE_READPARMS: opening data.shelfice
(PID.TID 0000.0001)  OPEN_COPY_DATA_FILE: opening file data.shelfice
(PID.TID 0000.0001) // =======================================================
(PID.TID 0000.0001) // Parameter file "data.shelfice"
(PID.TID 0000.0001) // =======================================================
(PID.TID 0000.0001) ># ===================================
(PID.TID 0000.0001) ># | Parameters for SHELFICE package |
(PID.TID 0000.0001) ># ===================================
(PID.TID 0000.0001) > &SHELFICE_PARM01
(PID.TID 0000.0001) > SHELFICEconserve   = .TRUE.,
(PID.TID 0000.0001) > SHELFICEboundaryLayer = .TRUE.,
(PID.TID 0000.0001) > SHI_withBL_realFWflux = .TRUE.,
(PID.TID 0000.0001) > SHI_withBL_uStarTopDz = .TRUE.,
(PID.TID 0000.0001) > SHELFICEuseGammaFrict = .TRUE.,
(PID.TID 0000.0001) > SHELFICEDragQuadratic = 0.0075,
(PID.TID 0000.0001) > shiCdrag = 0.0075,
(PID.TID 0000.0001) ># SHELFICEheatTransCoeff = 0.,
(PID.TID 0000.0001) ># SHELFICEsaltTransCoeff = 0.,
(PID.TID 0000.0001) > SHELFICEMassStepping = .TRUE.,
(PID.TID 0000.0001) > SHELFICEremeshFrequency = 3000.0,
(PID.TID 0000.0001) > SHELFICEsplitThreshold = 1.25,
(PID.TID 0000.0001) > SHELFICEmergeThreshold = 0.24,
(PID.TID 0000.0001) > SHELFICEtopoFile = 'shelftopo.round.bin',
(PID.TID 0000.0001) > SHELFICEmassFile = 'shelficemassinit.bin',
(PID.TID 0000.0001) > SHELFICEwriteState = .TRUE.,
(PID.TID 0000.0001) > /
(PID.TID 0000.0001) 
(PID.TID 0000.0001)  SHELFICE_READPARMS: finished reading data.shelfice
(PID.TID 0000.0001)  DIAGNOSTICS_READPARMS: opening data.diagnostics
(PID.TID 0000.0001)  OPEN_COPY_DATA_FILE: opening file data.diagnostics
(PID.TID 0000.0001) // =======================================================
(PID.TID 0000.0001) // Parameter file "data.diagnostics"
(PID.TID 0000.0001) // =======================================================
(PID.TID 0000.0001) ># Diagnostic Package Choices
(PID.TID 0000.0001) >#-----------------
(PID.TID 0000.0001) ># for each output-stream:
(PID.TID 0000.0001) >#  filename(n) : prefix of the output file name (only 8.c long) for outp.stream n
(PID.TID 0000.0001) >#  frequency(n):< 0 : write snap-shot output every |frequency| seconds
(PID.TID 0000.0001) >#               > 0 : write time-average output every frequency seconds
(PID.TID 0000.0001) >#  timePhase(n)     : write at time = timePhase + multiple of |frequency|
(PID.TID 0000.0001) >#  averagingFreq(n) : frequency (in s) for periodic averaging interval
(PID.TID 0000.0001) >#  averagingPhase(n): phase     (in s) for periodic averaging interval
(PID.TID 0000.0001) >#  repeatCycle(n)   : number of averaging intervals in 1 cycle
(PID.TID 0000.0001) >#  levels(:,n) : list of levels to write to file (Notes: declared as REAL)
(PID.TID 0000.0001) >#                 when this entry is missing, select all common levels of this list
(PID.TID 0000.0001) >#  fields(:,n) : list of diagnostics fields (8.c) (see "available_diagnostics.log"
(PID.TID 0000.0001) >#                 file for the list of all available diag. in this particular config)
(PID.TID 0000.0001) >#-----------------
(PID.TID 0000.0001) > &DIAGNOSTICS_LIST
(PID.TID 0000.0001) ># diag_mnc     = .FALSE.,
(PID.TID 0000.0001) ># dumpAtLast   = .TRUE.,
(PID.TID 0000.0001) >  fields(1:13,1) =
(PID.TID 0000.0001) >#       'ETAN    ','oceTAUX ','oceTAUY ',
(PID.TID 0000.0001) >#                 'oceQnet ','oceFWflx','MXLDEPTH',
(PID.TID 0000.0001) >                 'SHIfwFlx','SHIhtFlx','SHIgammT','SHIgammS',
(PID.TID 0000.0001) >                 'SHI_mass','SHIRshel',
(PID.TID 0000.0001) >                 'SI_Uvel ','SI_Vvel ','SI_Thick','SI_hmask',
(PID.TID 0000.0001) >                 'SI_float','SHIuStar'
(PID.TID 0000.0001) >#                'SHIuLocM','SHIvLocM','SHIwLocM','SHItLocM','SHIsLocM',
(PID.TID 0000.0001) >#		 'SHItLocB','SHIsLocB'
(PID.TID 0000.0001) >#                'SHIForcT','SHIForcS',
(PID.TID 0000.0001) >#                'surForcT','surForcS','TFLUX   ','SFLUX   ','oceFreez',
(PID.TID 0000.0001) >#                 'TRELAX  ','SRELAX  ',
(PID.TID 0000.0001) >#                'GM_VisbK',
(PID.TID 0000.0001) >#  fields(1,1)='ETAN'
(PID.TID 0000.0001) >   filename(1) = 'surfDiag',
(PID.TID 0000.0001) >  frequency(1) =  300,
(PID.TID 0000.0001) ># fields(1:7,2) = 'UVEL    ','VVEL    ','WVEL    ',
(PID.TID 0000.0001) >#                 'THETA   ','SALT    ','RHOAnoma', 'CONVADJ',
(PID.TID 0000.0001) >#   filename(2) = 'dynDiag',
(PID.TID 0000.0001) >#  frequency(2) =  2592000.,
(PID.TID 0000.0001) ># fields(1:5,3) = 'SI_Uvel ','SI_Vvel ','SI_Thick','SI_hmask','SI_float',
(PID.TID 0000.0001) >#   filename(3) = 'streamice',
(PID.TID 0000.0001) >#  frequency(3) =  2592000.,
(PID.TID 0000.0001) > /
(PID.TID 0000.0001) >
(PID.TID 0000.0001) ># Parameter for Diagnostics of per level statistics:
(PID.TID 0000.0001) >#-----------------
(PID.TID 0000.0001) ># for each output-stream:
(PID.TID 0000.0001) >#  stat_fname(n) : prefix of the output file name (only 8.c long) for outp.stream n
(PID.TID 0000.0001) >#  stat_freq(n):< 0 : write snap-shot output every |stat_freq| seconds
(PID.TID 0000.0001) >#               > 0 : write time-average output every stat_freq seconds
(PID.TID 0000.0001) >#  stat_phase(n)    : write at time = stat_phase + multiple of |stat_freq|
(PID.TID 0000.0001) >#  stat_region(:,n) : list of "regions" (default: 1 region only=global)
(PID.TID 0000.0001) >#  stat_fields(:,n) : list of diagnostics fields (8.c) (see "available_diagnostics.log"
(PID.TID 0000.0001) >#                 file for the list of all available diag. in this particular config)
(PID.TID 0000.0001) >#-----------------
(PID.TID 0000.0001) > &DIAG_STATIS_PARMS
(PID.TID 0000.0001) >#- regional mask: 3 lat. band: 1 : y <= -24 ; 2 : -24<y<24 ; 3 : 24 <= y
(PID.TID 0000.0001) ># diagSt_regMaskFile='regMask_lat24.bin',
(PID.TID 0000.0001) ># nSetRegMskFile=1,
(PID.TID 0000.0001) ># set_regMask(1)= 1,  1,  1,
(PID.TID 0000.0001) ># val_regMask(1)= 1., 2., 3.,
(PID.TID 0000.0001) >#---
(PID.TID 0000.0001) >#stat_fields(1,1)= 'ETAN    ','UVEL    ','VVEL    ','WVEL    ',
(PID.TID 0000.0001) >#                  'THETA   ','SALT    ','SIarea  ','SIheff  ',
(PID.TID 0000.0001) >#   stat_fname(1)= 'dynStDiag',
(PID.TID 0000.0001) >#    stat_freq(1)= 864000.,
(PID.TID 0000.0001) > /
(PID.TID 0000.0001) >
(PID.TID 0000.0001) 
(PID.TID 0000.0001) S/R DIAGNOSTICS_READPARMS, read namelist "diagnostics_list": start
(PID.TID 0000.0001) S/R DIAGNOSTICS_READPARMS, read namelist "diagnostics_list": OK
(PID.TID 0000.0001) S/R DIAGNOSTICS_READPARMS, read namelist "DIAG_STATIS_PARMS": start
(PID.TID 0000.0001) S/R DIAGNOSTICS_READPARMS, read namelist "DIAG_STATIS_PARMS": OK
(PID.TID 0000.0001)  DIAGNOSTICS_READPARMS: global parameter summary:
(PID.TID 0000.0001)  dumpAtLast = /* always write time-ave diags at the end */
(PID.TID 0000.0001)                   F
(PID.TID 0000.0001)     ;
(PID.TID 0000.0001)  diag_mnc =   /* write NetCDF output files */
(PID.TID 0000.0001)                   F
(PID.TID 0000.0001)     ;
(PID.TID 0000.0001)  useMissingValue = /* put MissingValue where mask = 0 */
(PID.TID 0000.0001)                   F
(PID.TID 0000.0001)     ;
(PID.TID 0000.0001)  diagCG_maxIters = /* max number of iters in diag_cg2d */
(PID.TID 0000.0001)                     300
(PID.TID 0000.0001)     ;
(PID.TID 0000.0001)  diagCG_resTarget = /* residual target for diag_cg2d */
(PID.TID 0000.0001)                 9.999999999999999E-12
(PID.TID 0000.0001)     ;
(PID.TID 0000.0001)  diagCG_pcOffDFac = /* preconditioner off-diagonal factor */
(PID.TID 0000.0001)                 9.611687812379854E-01
(PID.TID 0000.0001)     ;
(PID.TID 0000.0001) -----------------------------------------------------
(PID.TID 0000.0001)  DIAGNOSTICS_READPARMS: active diagnostics summary:
(PID.TID 0000.0001) -----------------------------------------------------
(PID.TID 0000.0001) Creating Output Stream: surfDiag
(PID.TID 0000.0001) Output Frequency:        300.000000 ; Phase:           0.000000
(PID.TID 0000.0001)  Averaging Freq.:        300.000000 , Phase:           0.000000 , Cycle:   1
(PID.TID 0000.0001)  missing value: -9.990000000000E+02
(PID.TID 0000.0001)  Levels:    will be set later
(PID.TID 0000.0001)  Fields:    SHIfwFlx SHIhtFlx SHIgammT SHIgammS SHI_mass SHIRshel SI_Uvel  SI_Vvel  SI_Thick SI_hmask
(PID.TID 0000.0001)  Fields:    SI_float SHIuStar
(PID.TID 0000.0001) -----------------------------------------------------
(PID.TID 0000.0001)  DIAGNOSTICS_READPARMS: statistics diags. summary:
(PID.TID 0000.0001) -----------------------------------------------------
(PID.TID 0000.0001) 
(PID.TID 0000.0001) SET_PARMS: done
(PID.TID 0000.0001) Enter INI_VERTICAL_GRID: setInterFDr=    T ; setCenterDr=    F
(PID.TID 0000.0001) %MON XC_max                       =  -1.0518750000000E+02
(PID.TID 0000.0001) %MON XC_min                       =  -1.0543750000000E+02
(PID.TID 0000.0001) %MON XC_mean                      =  -1.0531250000000E+02
(PID.TID 0000.0001) %MON XC_sd                        =   1.0206207261597E-01
(PID.TID 0000.0001) %MON XG_max                       =  -1.0525000000000E+02
(PID.TID 0000.0001) %MON XG_min                       =  -1.0550000000000E+02
(PID.TID 0000.0001) %MON XG_mean                      =  -1.0537500000000E+02
(PID.TID 0000.0001) %MON XG_sd                        =   1.0206207261597E-01
(PID.TID 0000.0001) %MON DXC_max                      =   3.8568974527819E+03
(PID.TID 0000.0001) %MON DXC_min                      =   3.4932435587116E+03
(PID.TID 0000.0001) %MON DXC_mean                     =   3.6752948781653E+03
(PID.TID 0000.0001) %MON DXC_sd                       =   1.0550536922206E+02
(PID.TID 0000.0001) %MON DXF_max                      =   3.8568974527819E+03
(PID.TID 0000.0001) %MON DXF_min                      =   3.4932435587116E+03
(PID.TID 0000.0001) %MON DXF_mean                     =   3.6752948781653E+03
(PID.TID 0000.0001) %MON DXF_sd                       =   1.0550536922206E+02
(PID.TID 0000.0001) %MON DXG_max                      =   3.8559871961701E+03
(PID.TID 0000.0001) %MON DXG_min                      =   3.4923265038643E+03
(PID.TID 0000.0001) %MON DXG_mean                     =   3.6743811666547E+03
(PID.TID 0000.0001) %MON DXG_sd                       =   1.0550734153918E+02
(PID.TID 0000.0001) %MON DXV_max                      =   3.8559871961701E+03
(PID.TID 0000.0001) %MON DXV_min                      =   3.4923265038643E+03
(PID.TID 0000.0001) %MON DXV_mean                     =   3.6743811666547E+03
(PID.TID 0000.0001) %MON DXV_sd                       =   1.0550734153918E+02
(PID.TID 0000.0001) %MON YC_max                       =  -7.3887106250000E+01
(PID.TID 0000.0001) %MON YC_min                       =  -7.5441793750000E+01
(PID.TID 0000.0001) %MON YC_mean                      =  -7.4664449999999E+01
(PID.TID 0000.0001) %MON YC_sd                        =   4.5104925958293E-01
(PID.TID 0000.0001) %MON YG_max                       =  -7.3891012500000E+01
(PID.TID 0000.0001) %MON YG_min                       =  -7.5445700000000E+01
(PID.TID 0000.0001) %MON YG_mean                      =  -7.4668356249999E+01
(PID.TID 0000.0001) %MON YG_sd                        =   4.5104925958293E-01
(PID.TID 0000.0001) %MON DYC_max                      =   8.6857401056280E+02
(PID.TID 0000.0001) %MON DYC_min                      =   8.6857401056280E+02
(PID.TID 0000.0001) %MON DYC_mean                     =   8.6857401056280E+02
(PID.TID 0000.0001) %MON DYC_sd                       =   7.6170181273483E-12
(PID.TID 0000.0001) %MON DYF_max                      =   8.6857401056280E+02
(PID.TID 0000.0001) %MON DYF_min                      =   8.6857401056280E+02
(PID.TID 0000.0001) %MON DYF_mean                     =   8.6857401056280E+02
(PID.TID 0000.0001) %MON DYF_sd                       =   7.6170181273483E-12
(PID.TID 0000.0001) %MON DYG_max                      =   8.6857401056280E+02
(PID.TID 0000.0001) %MON DYG_min                      =   8.6857401056280E+02
(PID.TID 0000.0001) %MON DYG_mean                     =   8.6857401056280E+02
(PID.TID 0000.0001) %MON DYG_sd                       =   7.6170181273483E-12
(PID.TID 0000.0001) %MON DYU_max                      =   8.6857401056280E+02
(PID.TID 0000.0001) %MON DYU_min                      =   8.6857401056280E+02
(PID.TID 0000.0001) %MON DYU_mean                     =   8.6857401056280E+02
(PID.TID 0000.0001) %MON DYU_sd                       =   7.6170181273483E-12
(PID.TID 0000.0001) %MON RA_max                       =   3.3500008863052E+06
(PID.TID 0000.0001) %MON RA_min                       =   3.0341405653118E+06
(PID.TID 0000.0001) %MON RA_mean                      =   3.1922656098560E+06
(PID.TID 0000.0001) %MON RA_sd                        =   9.1639221610150E+04
(PID.TID 0000.0001) %MON RAW_max                      =   3.3500008863052E+06
(PID.TID 0000.0001) %MON RAW_min                      =   3.0341405653118E+06
(PID.TID 0000.0001) %MON RAW_mean                     =   3.1922656098560E+06
(PID.TID 0000.0001) %MON RAW_sd                       =   9.1639221610150E+04
(PID.TID 0000.0001) %MON RAS_max                      =   3.3492102610598E+06
(PID.TID 0000.0001) %MON RAS_min                      =   3.0333440353089E+06
(PID.TID 0000.0001) %MON RAS_mean                     =   3.1914719837854E+06
(PID.TID 0000.0001) %MON RAS_sd                       =   9.1640934713506E+04
(PID.TID 0000.0001) %MON RAZ_max                      =   3.3492102610598E+06
(PID.TID 0000.0001) %MON RAZ_min                      =   3.0333440353089E+06
(PID.TID 0000.0001) %MON RAZ_mean                     =   3.1914719837854E+06
(PID.TID 0000.0001) %MON RAZ_sd                       =   9.1640934713506E+04
(PID.TID 0000.0001) %MON AngleCS_max                  =   1.0000000000000E+00
(PID.TID 0000.0001) %MON AngleCS_min                  =   1.0000000000000E+00
(PID.TID 0000.0001) %MON AngleCS_mean                 =   1.0000000000000E+00
(PID.TID 0000.0001) %MON AngleCS_sd                   =   0.0000000000000E+00
(PID.TID 0000.0001) %MON AngleSN_max                  =   0.0000000000000E+00
(PID.TID 0000.0001) %MON AngleSN_min                  =   0.0000000000000E+00
(PID.TID 0000.0001) %MON AngleSN_mean                 =   0.0000000000000E+00
(PID.TID 0000.0001) %MON AngleSN_sd                   =   0.0000000000000E+00
(PID.TID 0000.0001)  MDS_READ_FIELD: opening global file: bathy.box
(PID.TID 0000.0001)  MDS_READ_FIELD: opening global file: shelftopo.round.bin
(PID.TID 0000.0001)  MDS_READ_META: opening file: pickup_shelfice.0000011395.meta
(PID.TID 0000.0001)  nRecords =   2 ; filePrec =  64 ; fileIter =     11395
(PID.TID 0000.0001)     nDims =   2 , dims:
(PID.TID 0000.0001)    1:   3   1   3
(PID.TID 0000.0001)    2: 200   1 200
(PID.TID 0000.0001)     nFlds =   2 , nFl3D =   0 , fields:
(PID.TID 0000.0001)  >SHI_mass< >R_Shelfi<
(PID.TID 0000.0001) missingVal=  1.00000000000000E+00 ; nTimRec =   1 , timeList:
(PID.TID 0000.0001)   3.418500000000E+06
(PID.TID 0000.0001) READ_MFLDS_LEV_RS: read field: "R_Shelfi", #   2 in fldList, rec=   2
(PID.TID 0000.0001)  MDS_READ_FIELD: opening global file: pickup_shelfice.0000011395.data
(PID.TID 0000.0001) READ_MFLDS_CHECK: - normal end ; reset MFLDS file-name: pickup_shelfice.0000011395
(PID.TID 0000.0001) GAD_INIT_FIXED: GAD_OlMinSize=  2  0  1
(PID.TID 0000.0001) 
(PID.TID 0000.0001) // ===================================
(PID.TID 0000.0001) // GAD parameters :
(PID.TID 0000.0001) // ===================================
(PID.TID 0000.0001) tempAdvScheme =   /* Temp. Horiz.Advection scheme selector */
(PID.TID 0000.0001)                      30
(PID.TID 0000.0001)     ;
(PID.TID 0000.0001) tempVertAdvScheme =   /* Temp. Vert. Advection scheme selector */
(PID.TID 0000.0001)                      30
(PID.TID 0000.0001)     ;
(PID.TID 0000.0001) tempMultiDimAdvec =   /* use Muti-Dim Advec method for Temp */
(PID.TID 0000.0001)                   T
(PID.TID 0000.0001)     ;
(PID.TID 0000.0001) tempSOM_Advection = /* use 2nd Order Moment Advection for Temp */
(PID.TID 0000.0001)                   F
(PID.TID 0000.0001)     ;
(PID.TID 0000.0001) AdamsBashforthGt = /* apply Adams-Bashforth extrapolation on Gt */
(PID.TID 0000.0001)                   F
(PID.TID 0000.0001)     ;
(PID.TID 0000.0001) AdamsBashforth_T = /* apply Adams-Bashforth extrapolation on Temp */
(PID.TID 0000.0001)                   F
(PID.TID 0000.0001)     ;
(PID.TID 0000.0001) saltAdvScheme =   /* Salt. Horiz.advection scheme selector */
(PID.TID 0000.0001)                      30
(PID.TID 0000.0001)     ;
(PID.TID 0000.0001) saltVertAdvScheme =   /* Salt. Vert. Advection scheme selector */
(PID.TID 0000.0001)                      30
(PID.TID 0000.0001)     ;
(PID.TID 0000.0001) saltMultiDimAdvec =   /* use Muti-Dim Advec method for Salt */
(PID.TID 0000.0001)                   T
(PID.TID 0000.0001)     ;
(PID.TID 0000.0001) saltSOM_Advection = /* use 2nd Order Moment Advection for Salt */
(PID.TID 0000.0001)                   F
(PID.TID 0000.0001)     ;
(PID.TID 0000.0001) AdamsBashforthGs = /* apply Adams-Bashforth extrapolation on Gs */
(PID.TID 0000.0001)                   F
(PID.TID 0000.0001)     ;
(PID.TID 0000.0001) AdamsBashforth_S = /* apply Adams-Bashforth extrapolation on Salt */
(PID.TID 0000.0001)                   F
(PID.TID 0000.0001)     ;
(PID.TID 0000.0001) // ===================================
(PID.TID 0000.0001) ADDED DIAGS TO LIST
(PID.TID 0000.0001)  MDS_READ_FIELD: opening global file: ufacemask3.box
(PID.TID 0000.0001)  MDS_READ_FIELD: opening global file: vfacemask3.box
(PID.TID 0000.0001)  MDS_READ_FIELD: opening global file: vdirich.box
(PID.TID 0000.0001)  MDS_READ_FIELD: opening global file: HBCy.box
(PID.TID 0000.0001)  MDS_READ_FIELD: opening global file: hmask3.box
(PID.TID 0000.0001)  MDS_READ_FIELD: opening global file: shelficemassinit.bin
(PID.TID 0000.0001) ------------------------------------------------------------
(PID.TID 0000.0001) DIAGNOSTICS_SET_LEVELS: done
(PID.TID 0000.0001)  Total Nb of available Diagnostics: ndiagt=   219
(PID.TID 0000.0001)  write list of available Diagnostics to file: available_diagnostics.log
(PID.TID 0000.0001) SETDIAG: Allocate  1 x  1 Levels for Diagnostic #   209 SHIfwFlx
(PID.TID 0000.0001) SETDIAG: Allocate  1 x  1 Levels for Diagnostic #   210 SHIhtFlx
(PID.TID 0000.0001) SETDIAG: Allocate  1 x  1 Levels for Diagnostic #   215 SHIgammT
(PID.TID 0000.0001) SETDIAG: Allocate  1 x  1 Levels for Diagnostic #   216 SHIgammS
(PID.TID 0000.0001) SETDIAG: Allocate  1 x  1 Levels for Diagnostic #   218 SHI_mass
(PID.TID 0000.0001) SETDIAG: Allocate  1 x  1 Levels for Diagnostic #   219 SHIRshel
(PID.TID 0000.0001) SETDIAG: Allocate  1 x  1 Levels for Diagnostic #   194 SI_Uvel
(PID.TID 0000.0001) SETDIAG: Allocate  1 x  1 Levels for Diagnostic #   195 SI_Vvel
(PID.TID 0000.0001) SETDIAG: Allocate  1 x  1 Levels for Diagnostic #   196 SI_Thick
(PID.TID 0000.0001) SETDIAG: Allocate  1 x  1 Levels for Diagnostic #   199 SI_hmask
(PID.TID 0000.0001) SETDIAG: Allocate  1 x  1 Levels for Diagnostic #   198 SI_float
(PID.TID 0000.0001) SETDIAG: Allocate  1 x  1 Levels for Diagnostic #   217 SHIuStar
(PID.TID 0000.0001)   space allocated for all diagnostics:      12 levels
(PID.TID 0000.0001) DIAGNOSTICS_SET_POINTERS: Set levels for Outp.Stream: surfDiag
(PID.TID 0000.0001)  Levels:       1.
(PID.TID 0000.0001) DIAGNOSTICS_SET_POINTERS: done
(PID.TID 0000.0001) ------------------------------------------------------------
(PID.TID 0000.0001) DIAGSTATS_SET_REGIONS: define no region
(PID.TID 0000.0001) ------------------------------------------------------------
(PID.TID 0000.0001)   space allocated for all stats-diags:       0 levels
(PID.TID 0000.0001) DIAGSTATS_SET_POINTERS: done
(PID.TID 0000.0001) ------------------------------------------------------------
(PID.TID 0000.0001) %MON fCori_max                    =   0.0000000000000E+00
(PID.TID 0000.0001) %MON fCori_min                    =   0.0000000000000E+00
(PID.TID 0000.0001) %MON fCori_mean                   =   0.0000000000000E+00
(PID.TID 0000.0001) %MON fCori_sd                     =   0.0000000000000E+00
(PID.TID 0000.0001) %MON fCoriG_max                   =   0.0000000000000E+00
(PID.TID 0000.0001) %MON fCoriG_min                   =   0.0000000000000E+00
(PID.TID 0000.0001) %MON fCoriG_mean                  =   0.0000000000000E+00
(PID.TID 0000.0001) %MON fCoriG_sd                    =   0.0000000000000E+00
(PID.TID 0000.0001) %MON fCoriCos_max                 =   0.0000000000000E+00
(PID.TID 0000.0001) %MON fCoriCos_min                 =   0.0000000000000E+00
(PID.TID 0000.0001) %MON fCoriCos_mean                =   0.0000000000000E+00
(PID.TID 0000.0001) %MON fCoriCos_sd                  =   0.0000000000000E+00
(PID.TID 0000.0001) INI_CG2D: CG2D normalisation factor =  2.5039971719217701E-04
(PID.TID 0000.0001) 
(PID.TID 0000.0001) // =======================================================
(PID.TID 0000.0001) // Model configuration
(PID.TID 0000.0001) // =======================================================
(PID.TID 0000.0001) //
(PID.TID 0000.0001) // "Physical" paramters ( PARM01 in namelist )
(PID.TID 0000.0001) //
(PID.TID 0000.0001) buoyancyRelation = /* Type of relation to get Buoyancy */
(PID.TID 0000.0001)               'OCEANIC'
(PID.TID 0000.0001)     ;
(PID.TID 0000.0001) fluidIsAir   =  /* fluid major constituent is Air */
(PID.TID 0000.0001)                   F
(PID.TID 0000.0001)     ;
(PID.TID 0000.0001) fluidIsWater =  /* fluid major constituent is Water */
(PID.TID 0000.0001)                   T
(PID.TID 0000.0001)     ;
(PID.TID 0000.0001) usingPCoords =  /* use p (or p*) vertical coordinate */
(PID.TID 0000.0001)                   F
(PID.TID 0000.0001)     ;
(PID.TID 0000.0001) usingZCoords =  /* use z (or z*) vertical coordinate */
(PID.TID 0000.0001)                   T
(PID.TID 0000.0001)     ;
(PID.TID 0000.0001) tRef =   /* Reference temperature profile ( oC or K ) */
(PID.TID 0000.0001)    90 @ -1.900000000000000E+00              /* K =  1: 90 */
(PID.TID 0000.0001)     ;
(PID.TID 0000.0001) sRef =   /* Reference salinity profile ( psu ) */
(PID.TID 0000.0001)    90 @  3.440000000000000E+01              /* K =  1: 90 */
(PID.TID 0000.0001)     ;
(PID.TID 0000.0001) useStrainTensionVisc= /* Use StrainTension Form of Viscous Operator */
(PID.TID 0000.0001)                   F
(PID.TID 0000.0001)     ;
(PID.TID 0000.0001) useVariableVisc = /* Use variable horizontal viscosity */
(PID.TID 0000.0001)                   T
(PID.TID 0000.0001)     ;
(PID.TID 0000.0001) useHarmonicVisc = /* Use harmonic horizontal viscosity */
(PID.TID 0000.0001)                   T
(PID.TID 0000.0001)     ;
(PID.TID 0000.0001) useBiharmonicVisc= /* Use biharmonic horiz.  viscosity */
(PID.TID 0000.0001)                   T
(PID.TID 0000.0001)     ;
(PID.TID 0000.0001) useSmag3D = /* Use isotropic 3-D Smagorinsky viscosity */
(PID.TID 0000.0001)                   F
(PID.TID 0000.0001)     ;
(PID.TID 0000.0001) viscAh  =   /* Lateral harmonic viscosity ( m^2/s ) */
(PID.TID 0000.0001)                 0.000000000000000E+00
(PID.TID 0000.0001)     ;
(PID.TID 0000.0001) viscAhMax = /* Maximum lateral harmonic viscosity ( m^2/s ) */
(PID.TID 0000.0001)                 1.000000000000000E+21
(PID.TID 0000.0001)     ;
(PID.TID 0000.0001) viscAhGrid = /* Grid dependent lateral harmonic viscosity ( non-dim. ) */
(PID.TID 0000.0001)                 2.000000000000000E-01
(PID.TID 0000.0001)     ;
(PID.TID 0000.0001) useFullLeith = /* Use Full Form of Leith Viscosity on/off flag*/
(PID.TID 0000.0001)                   F
(PID.TID 0000.0001)     ;
(PID.TID 0000.0001) useAreaViscLength = /* Use area for visc length instead of geom. mean*/
(PID.TID 0000.0001)                   F
(PID.TID 0000.0001)     ;
(PID.TID 0000.0001) viscC2leith = /* Leith harmonic visc. factor (on grad(vort),non-dim.) */
(PID.TID 0000.0001)                 0.000000000000000E+00
(PID.TID 0000.0001)     ;
(PID.TID 0000.0001) viscC2leithD = /* Leith harmonic viscosity factor (on grad(div),non-dim.)*/
(PID.TID 0000.0001)                 0.000000000000000E+00
(PID.TID 0000.0001)     ;
(PID.TID 0000.0001) viscC2LeithQG = /* QG Leith harmonic viscosity factor (non-dim.)*/
(PID.TID 0000.0001)                 0.000000000000000E+00
(PID.TID 0000.0001)     ;
(PID.TID 0000.0001) viscC2smag = /* Smagorinsky harmonic viscosity factor (non-dim.) */
(PID.TID 0000.0001)                 0.000000000000000E+00
(PID.TID 0000.0001)     ;
(PID.TID 0000.0001) viscA4  =   /* Lateral biharmonic viscosity ( m^4/s ) */
(PID.TID 0000.0001)                 0.000000000000000E+00
(PID.TID 0000.0001)     ;
(PID.TID 0000.0001) viscA4Max = /* Maximum biharmonic viscosity ( m^2/s ) */
(PID.TID 0000.0001)                 1.000000000000000E+21
(PID.TID 0000.0001)     ;
(PID.TID 0000.0001) viscA4Grid = /* Grid dependent biharmonic viscosity ( non-dim. ) */
(PID.TID 0000.0001)                 2.000000000000000E-02
(PID.TID 0000.0001)     ;
(PID.TID 0000.0001) viscC4leith = /* Leith biharm viscosity factor (on grad(vort), non-dim.)*/
(PID.TID 0000.0001)                 0.000000000000000E+00
(PID.TID 0000.0001)     ;
(PID.TID 0000.0001) viscC4leithD = /* Leith biharm viscosity factor (on grad(div), non-dim.) */
(PID.TID 0000.0001)                 0.000000000000000E+00
(PID.TID 0000.0001)     ;
(PID.TID 0000.0001) viscC4Smag = /* Smagorinsky biharm viscosity factor (non-dim) */
(PID.TID 0000.0001)                 0.000000000000000E+00
(PID.TID 0000.0001)     ;
(PID.TID 0000.0001) no_slip_sides =  /* Viscous BCs: No-slip sides */
(PID.TID 0000.0001)                   F
(PID.TID 0000.0001)     ;
(PID.TID 0000.0001) sideDragFactor = /* side-drag scaling factor (non-dim) */
(PID.TID 0000.0001)                 2.000000000000000E+00
(PID.TID 0000.0001)     ;
(PID.TID 0000.0001) viscArNr = /* vertical profile of vertical viscosity ( m^2/s )*/
(PID.TID 0000.0001)    90 @  1.000000000000000E-03              /* K =  1: 90 */
(PID.TID 0000.0001)     ;
(PID.TID 0000.0001) no_slip_bottom =  /* Viscous BCs: No-slip bottom */
(PID.TID 0000.0001)                   F
(PID.TID 0000.0001)     ;
(PID.TID 0000.0001) bottomVisc_pCell = /* Partial-cell in bottom Visc. BC */
(PID.TID 0000.0001)                   F
(PID.TID 0000.0001)     ;
(PID.TID 0000.0001) bottomDragLinear = /* linear bottom-drag coefficient ( m/s ) */
(PID.TID 0000.0001)                 0.000000000000000E+00
(PID.TID 0000.0001)     ;
(PID.TID 0000.0001) bottomDragQuadratic = /* quadratic bottom-drag coefficient (-) */
(PID.TID 0000.0001)                 2.500000000000000E-03
(PID.TID 0000.0001)     ;
(PID.TID 0000.0001) selectBotDragQuadr = /* select quadratic bottom drag options */
(PID.TID 0000.0001)                       0
(PID.TID 0000.0001)     ;
(PID.TID 0000.0001) diffKhT =   /* Laplacian diffusion of heat laterally ( m^2/s ) */
(PID.TID 0000.0001)                 1.000000000000000E+02
(PID.TID 0000.0001)     ;
(PID.TID 0000.0001) diffK4T =   /* Biharmonic diffusion of heat laterally ( m^4/s ) */
(PID.TID 0000.0001)                 0.000000000000000E+00
(PID.TID 0000.0001)     ;
(PID.TID 0000.0001) diffKhS =   /* Laplacian diffusion of salt laterally ( m^2/s ) */
(PID.TID 0000.0001)                 1.000000000000000E+02
(PID.TID 0000.0001)     ;
(PID.TID 0000.0001) diffK4S =   /* Biharmonic diffusion of salt laterally ( m^4/s ) */
(PID.TID 0000.0001)                 0.000000000000000E+00
(PID.TID 0000.0001)     ;
(PID.TID 0000.0001) diffKrNrT = /* vertical profile of vertical diffusion of Temp ( m^2/s )*/
(PID.TID 0000.0001)    90 @  5.000000000000000E-05              /* K =  1: 90 */
(PID.TID 0000.0001)     ;
(PID.TID 0000.0001) diffKrNrS = /* vertical profile of vertical diffusion of Salt ( m^2/s )*/
(PID.TID 0000.0001)    90 @  5.000000000000000E-05              /* K =  1: 90 */
(PID.TID 0000.0001)     ;
(PID.TID 0000.0001) diffKrBL79surf = /* Surface diffusion for Bryan and Lewis 79 ( m^2/s ) */
(PID.TID 0000.0001)                 0.000000000000000E+00
(PID.TID 0000.0001)     ;
(PID.TID 0000.0001) diffKrBL79deep = /* Deep diffusion for Bryan and Lewis 1979 ( m^2/s ) */
(PID.TID 0000.0001)                 0.000000000000000E+00
(PID.TID 0000.0001)     ;
(PID.TID 0000.0001) diffKrBL79scl = /* Depth scale for Bryan and Lewis 1979 ( m ) */
(PID.TID 0000.0001)                 2.000000000000000E+02
(PID.TID 0000.0001)     ;
(PID.TID 0000.0001) diffKrBL79Ho = /* Turning depth for Bryan and Lewis 1979 ( m ) */
(PID.TID 0000.0001)                -2.000000000000000E+03
(PID.TID 0000.0001)     ;
(PID.TID 0000.0001) ivdc_kappa = /* Implicit Vertical Diffusivity for Convection ( m^2/s) */
(PID.TID 0000.0001)                 0.000000000000000E+00
(PID.TID 0000.0001)     ;
(PID.TID 0000.0001) hMixCriteria=  /* Criteria for mixed-layer diagnostic */
(PID.TID 0000.0001)                -8.000000000000000E-01
(PID.TID 0000.0001)     ;
(PID.TID 0000.0001) dRhoSmall =  /* Parameter for mixed-layer diagnostic */
(PID.TID 0000.0001)                 1.000000000000000E-06
(PID.TID 0000.0001)     ;
(PID.TID 0000.0001) hMixSmooth=  /* Smoothing parameter for mixed-layer diagnostic */
(PID.TID 0000.0001)                 0.000000000000000E+00
(PID.TID 0000.0001)     ;
(PID.TID 0000.0001) eosType =  /* Type of Equation of State */
(PID.TID 0000.0001)               'JMD95Z'
(PID.TID 0000.0001)     ;
(PID.TID 0000.0001) eosRefP0 = /* Reference atmospheric pressure for EOS ( Pa ) */
(PID.TID 0000.0001)                 1.013250000000000E+05
(PID.TID 0000.0001)     ;
(PID.TID 0000.0001) selectP_inEOS_Zc = /* select pressure to use in EOS (0,1,2,3) */
(PID.TID 0000.0001)                       0
(PID.TID 0000.0001)     0= -g*rhoConst*z ; 1= pRef (from tRef,sRef); 2= Hyd P ; 3= Hyd+NH P
(PID.TID 0000.0001)     ;
(PID.TID 0000.0001) surf_pRef = /* Surface reference pressure ( Pa ) */
(PID.TID 0000.0001)                 1.013250000000000E+05
(PID.TID 0000.0001)     ;
(PID.TID 0000.0001) HeatCapacity_Cp =  /* Specific heat capacity ( J/kg/K ) */
(PID.TID 0000.0001)                 3.974000000000000E+03
(PID.TID 0000.0001)     ;
(PID.TID 0000.0001) celsius2K = /* 0 degree Celsius converted to Kelvin ( K ) */
(PID.TID 0000.0001)                 2.731500000000000E+02
(PID.TID 0000.0001)     ;
(PID.TID 0000.0001) rhoConst  = /* Reference density (Boussinesq)  ( kg/m^3 ) */
(PID.TID 0000.0001)                 1.000000000000000E+03
(PID.TID 0000.0001)     ;
(PID.TID 0000.0001) rhoFacC = /* normalized Reference density @ cell-Center (-) */
(PID.TID 0000.0001)    90 @  1.000000000000000E+00              /* K =  1: 90 */
(PID.TID 0000.0001)     ;
(PID.TID 0000.0001) rhoFacF = /* normalized Reference density @ W-Interface (-) */
(PID.TID 0000.0001)    91 @  1.000000000000000E+00              /* K =  1: 91 */
(PID.TID 0000.0001)     ;
(PID.TID 0000.0001) rhoConstFresh = /* Fresh-water reference density ( kg/m^3 ) */
(PID.TID 0000.0001)                 1.000000000000000E+03
(PID.TID 0000.0001)     ;
(PID.TID 0000.0001) gravity =   /* Gravitational acceleration ( m/s^2 ) */
(PID.TID 0000.0001)                 9.810000000000000E+00
(PID.TID 0000.0001)     ;
(PID.TID 0000.0001) gBaro =   /* Barotropic gravity ( m/s^2 ) */
(PID.TID 0000.0001)                 9.810000000000000E+00
(PID.TID 0000.0001)     ;
(PID.TID 0000.0001) gravFacC = /* gravity factor (vs surf.) @ cell-Center (-) */
(PID.TID 0000.0001)    90 @  1.000000000000000E+00              /* K =  1: 90 */
(PID.TID 0000.0001)     ;
(PID.TID 0000.0001) gravFacF = /* gravity factor (vs surf.) @ W-Interface (-) */
(PID.TID 0000.0001)    91 @  1.000000000000000E+00              /* K =  1: 91 */
(PID.TID 0000.0001)     ;
(PID.TID 0000.0001) rotationPeriod =   /* Rotation Period ( s ) */
(PID.TID 0000.0001)                 8.616400000000000E+04
(PID.TID 0000.0001)     ;
(PID.TID 0000.0001) omega =   /* Angular velocity ( rad/s ) */
(PID.TID 0000.0001)                 7.292123516990375E-05
(PID.TID 0000.0001)     ;
(PID.TID 0000.0001) f0 =   /* Reference coriolis parameter ( 1/s ) */
(PID.TID 0000.0001)                 0.000000000000000E+00
(PID.TID 0000.0001)     ;
(PID.TID 0000.0001) beta =   /* Beta ( 1/(m.s) ) */
(PID.TID 0000.0001)                 9.999999999999999E-12
(PID.TID 0000.0001)     ;
(PID.TID 0000.0001) fPrime =   /* Second coriolis parameter ( 1/s ) */
(PID.TID 0000.0001)                 0.000000000000000E+00
(PID.TID 0000.0001)     ;
(PID.TID 0000.0001) rigidLid =   /* Rigid lid on/off flag */
(PID.TID 0000.0001)                   F
(PID.TID 0000.0001)     ;
(PID.TID 0000.0001) implicitFreeSurface =   /* Implicit free surface on/off flag */
(PID.TID 0000.0001)                   T
(PID.TID 0000.0001)     ;
(PID.TID 0000.0001) freeSurfFac =   /* Implicit free surface factor */
(PID.TID 0000.0001)                 1.000000000000000E+00
(PID.TID 0000.0001)     ;
(PID.TID 0000.0001) implicSurfPress =  /* Surface Pressure implicit factor (0-1)*/
(PID.TID 0000.0001)                 1.000000000000000E+00
(PID.TID 0000.0001)     ;
(PID.TID 0000.0001) implicDiv2DFlow =  /* Barot. Flow Div. implicit factor (0-1)*/
(PID.TID 0000.0001)                 1.000000000000000E+00
(PID.TID 0000.0001)     ;
(PID.TID 0000.0001) uniformLin_PhiSurf = /* use uniform Bo_surf on/off flag*/
(PID.TID 0000.0001)                   T
(PID.TID 0000.0001)     ;
(PID.TID 0000.0001) uniformFreeSurfLev = /* free-surface level-index is uniform */
(PID.TID 0000.0001)                   F
(PID.TID 0000.0001)     ;
(PID.TID 0000.0001) hFacMin =   /* minimum partial cell factor (hFac) */
(PID.TID 0000.0001)                 2.000000000000000E-01
(PID.TID 0000.0001)     ;
(PID.TID 0000.0001) hFacMinDr = /* minimum partial cell thickness ( m) */
(PID.TID 0000.0001)                 0.000000000000000E+00
(PID.TID 0000.0001)     ;
(PID.TID 0000.0001) exactConserv =  /* Exact Volume Conservation on/off flag*/
(PID.TID 0000.0001)                   T
(PID.TID 0000.0001)     ;
(PID.TID 0000.0001) linFSConserveTr = /* Tracer correction for Lin Free Surface on/off flag*/
(PID.TID 0000.0001)                   F
(PID.TID 0000.0001)     ;
(PID.TID 0000.0001) nonlinFreeSurf = /* Non-linear Free Surf. options (-1,0,1,2,3)*/
(PID.TID 0000.0001)                       4
(PID.TID 0000.0001)      -1,0= Off ; 1,2,3= On, 2=+rescale gU,gV, 3=+update cg2d solv.
(PID.TID 0000.0001)     ;
(PID.TID 0000.0001) hFacInf =   /* lower threshold for hFac (nonlinFreeSurf only)*/
(PID.TID 0000.0001)                 2.000000000000000E-01
(PID.TID 0000.0001)     ;
(PID.TID 0000.0001) hFacSup =   /* upper threshold for hFac (nonlinFreeSurf only)*/
(PID.TID 0000.0001)                 2.000000000000000E+00
(PID.TID 0000.0001)     ;
(PID.TID 0000.0001) select_rStar = /* r* Vertical coord. options (=0 r coord.; >0 uses r*)*/
(PID.TID 0000.0001)                       0
(PID.TID 0000.0001)     ;
(PID.TID 0000.0001) useRealFreshWaterFlux = /* Real Fresh Water Flux on/off flag*/
(PID.TID 0000.0001)                   T
(PID.TID 0000.0001)     ;
(PID.TID 0000.0001) temp_EvPrRn = /* Temp. of Evap/Prec/R (UNSET=use local T)(oC)*/
(PID.TID 0000.0001)                 1.234567000000000E+05
(PID.TID 0000.0001)     ;
(PID.TID 0000.0001) salt_EvPrRn = /* Salin. of Evap/Prec/R (UNSET=use local S)(psu)*/
(PID.TID 0000.0001)                 0.000000000000000E+00
(PID.TID 0000.0001)     ;
(PID.TID 0000.0001) selectAddFluid = /* option for mass source/sink of fluid (=0: off) */
(PID.TID 0000.0001)                       0
(PID.TID 0000.0001)     ;
(PID.TID 0000.0001) temp_addMass = /* Temp. of addMass array (UNSET=use local T)(oC)*/
(PID.TID 0000.0001)                 1.234567000000000E+05
(PID.TID 0000.0001)     ;
(PID.TID 0000.0001) salt_addMass = /* Salin. of addMass array (UNSET=use local S)(psu)*/
(PID.TID 0000.0001)                 0.000000000000000E+00
(PID.TID 0000.0001)     ;
(PID.TID 0000.0001) use3Dsolver = /* use 3-D pressure solver on/off flag */
(PID.TID 0000.0001)                   F
(PID.TID 0000.0001)     ;
(PID.TID 0000.0001) nonHydrostatic =  /* Non-Hydrostatic on/off flag */
(PID.TID 0000.0001)                   F
(PID.TID 0000.0001)     ;
(PID.TID 0000.0001) nh_Am2 = /* Non-Hydrostatic terms scaling factor */
(PID.TID 0000.0001)                 1.000000000000000E+00
(PID.TID 0000.0001)     ;
(PID.TID 0000.0001) implicitNHPress = /* Non-Hyd Pressure implicit factor (0-1)*/
(PID.TID 0000.0001)                 1.000000000000000E+00
(PID.TID 0000.0001)     ;
(PID.TID 0000.0001) selectNHfreeSurf = /* Non-Hyd (free-)Surface option */
(PID.TID 0000.0001)                       0
(PID.TID 0000.0001)     ;
(PID.TID 0000.0001) quasiHydrostatic = /* Quasi-Hydrostatic on/off flag */
(PID.TID 0000.0001)                   F
(PID.TID 0000.0001)     ;
(PID.TID 0000.0001) calc_wVelocity = /* vertical velocity calculation on/off flag */
(PID.TID 0000.0001)                   T
(PID.TID 0000.0001)     ;
(PID.TID 0000.0001) momStepping =  /* Momentum equation on/off flag */
(PID.TID 0000.0001)                   T
(PID.TID 0000.0001)     ;
(PID.TID 0000.0001) vectorInvariantMomentum= /* Vector-Invariant Momentum on/off */
(PID.TID 0000.0001)                   T
(PID.TID 0000.0001)     ;
(PID.TID 0000.0001) momAdvection =  /* Momentum advection on/off flag */
(PID.TID 0000.0001)                   T
(PID.TID 0000.0001)     ;
(PID.TID 0000.0001) momViscosity =  /* Momentum viscosity on/off flag */
(PID.TID 0000.0001)                   T
(PID.TID 0000.0001)     ;
(PID.TID 0000.0001) momImplVertAdv= /* Momentum implicit vert. advection on/off*/
(PID.TID 0000.0001)                   F
(PID.TID 0000.0001)     ;
(PID.TID 0000.0001) implicitViscosity = /* Implicit viscosity on/off flag */
(PID.TID 0000.0001)                   T
(PID.TID 0000.0001)     ;
(PID.TID 0000.0001) selectImplicitDrag= /* Implicit bot Drag options (0,1,2)*/
(PID.TID 0000.0001)                       0
(PID.TID 0000.0001)     0= Expl. ; 1= Impl. on provis. Vel ; 2= Fully Impl (with surf.P)
(PID.TID 0000.0001)     ;
(PID.TID 0000.0001) metricTerms =  /* metric-Terms on/off flag */
(PID.TID 0000.0001)                   T
(PID.TID 0000.0001)     ;
(PID.TID 0000.0001) useNHMTerms = /* Non-Hydrostatic Metric-Terms on/off */
(PID.TID 0000.0001)                   F
(PID.TID 0000.0001)     ;
(PID.TID 0000.0001) selectCoriMap = /* Coriolis Map options (0,1,2,3)*/
(PID.TID 0000.0001)                       0
(PID.TID 0000.0001)     0= f-Plane ; 1= Beta-Plane ; 2= Spherical ; 3= read from file
(PID.TID 0000.0001)     ;
(PID.TID 0000.0001) use3dCoriolis = /* 3-D Coriolis on/off flag */
(PID.TID 0000.0001)                   F
(PID.TID 0000.0001)     ;
(PID.TID 0000.0001) useCoriolis =  /* Coriolis on/off flag */
(PID.TID 0000.0001)                   F
(PID.TID 0000.0001)     ;
(PID.TID 0000.0001) useCDscheme =  /* CD scheme on/off flag */
(PID.TID 0000.0001)                   F
(PID.TID 0000.0001)     ;
(PID.TID 0000.0001) selectCoriScheme= /* Scheme selector for Coriolis-Term */
(PID.TID 0000.0001)                       0
(PID.TID 0000.0001)    = 0 : original discretization (simple averaging, no hFac)
(PID.TID 0000.0001)    = 1 : Wet-point averaging (Jamar & Ozer 1986)
(PID.TID 0000.0001)    = 2 : hFac weighted average (Angular Mom. conserving)
(PID.TID 0000.0001)    = 3 : energy conserving scheme using hFac weighted average
(PID.TID 0000.0001)     ;
(PID.TID 0000.0001) useAbsVorticity= /* V.I Works with f+zeta in Coriolis */
(PID.TID 0000.0001)                   F
(PID.TID 0000.0001)     ;
(PID.TID 0000.0001) selectVortScheme= /* V.I Scheme selector for Vorticity-Term */
(PID.TID 0000.0001)                       1
(PID.TID 0000.0001)    = 0 : enstrophy (Shallow-Water Eq.) conserving scheme by Sadourny, JAS 75
(PID.TID 0000.0001)    = 1 : same as 0 with modified hFac
(PID.TID 0000.0001)    = 2 : energy conserving scheme (used by Sadourny in JAS 75 paper)
(PID.TID 0000.0001)    = 3 : energy (general) and enstrophy (2D, nonDiv.) conserving scheme
(PID.TID 0000.0001)          from Sadourny (Burridge & Haseler, ECMWF Rep.4, 1977)
(PID.TID 0000.0001)     ;
(PID.TID 0000.0001) useJamartMomAdv= /* V.I Non-linear terms Jamart flag */
(PID.TID 0000.0001)                   F
(PID.TID 0000.0001)     ;
(PID.TID 0000.0001) upwindVorticity= /* V.I Upwind bias vorticity flag */
(PID.TID 0000.0001)                   F
(PID.TID 0000.0001)     ;
(PID.TID 0000.0001) highOrderVorticity= /* V.I High order vort. advect. flag */
(PID.TID 0000.0001)                   F
(PID.TID 0000.0001)     ;
(PID.TID 0000.0001) upwindShear= /* V.I Upwind vertical Shear advection flag */
(PID.TID 0000.0001)                   F
(PID.TID 0000.0001)     ;
(PID.TID 0000.0001) selectKEscheme= /* V.I Kinetic Energy scheme selector */
(PID.TID 0000.0001)                       0
(PID.TID 0000.0001)     ;
(PID.TID 0000.0001) momForcing =  /* Momentum forcing on/off flag */
(PID.TID 0000.0001)                   T
(PID.TID 0000.0001)     ;
(PID.TID 0000.0001) momTidalForcing = /* Momentum Tidal forcing on/off flag */
(PID.TID 0000.0001)                   T
(PID.TID 0000.0001)     ;
(PID.TID 0000.0001) momPressureForcing =  /* Momentum pressure term on/off flag */
(PID.TID 0000.0001)                   T
(PID.TID 0000.0001)     ;
(PID.TID 0000.0001) implicitIntGravWave= /* Implicit Internal Gravity Wave flag */
(PID.TID 0000.0001)                   F
(PID.TID 0000.0001)     ;
(PID.TID 0000.0001) staggerTimeStep =    /* Stagger time stepping on/off flag */
(PID.TID 0000.0001)                   T
(PID.TID 0000.0001)     ;
(PID.TID 0000.0001) doResetHFactors = /* reset thickness factors @ each time-step */
(PID.TID 0000.0001)                   F
(PID.TID 0000.0001)     ;
(PID.TID 0000.0001) multiDimAdvection =  /* enable/disable Multi-Dim Advection */
(PID.TID 0000.0001)                   T
(PID.TID 0000.0001)     ;
(PID.TID 0000.0001) useMultiDimAdvec =   /* Multi-Dim Advection is/is-not used */
(PID.TID 0000.0001)                   T
(PID.TID 0000.0001)     ;
(PID.TID 0000.0001) implicitDiffusion = /* Implicit Diffusion on/off flag */
(PID.TID 0000.0001)                   T
(PID.TID 0000.0001)     ;
(PID.TID 0000.0001) tempStepping =  /* Temperature equation on/off flag */
(PID.TID 0000.0001)                   T
(PID.TID 0000.0001)     ;
(PID.TID 0000.0001) tempAdvection = /* Temperature advection on/off flag */
(PID.TID 0000.0001)                   T
(PID.TID 0000.0001)     ;
(PID.TID 0000.0001) tempImplVertAdv = /* Temp. implicit vert. advection on/off */
(PID.TID 0000.0001)                   T
(PID.TID 0000.0001)     ;
(PID.TID 0000.0001) tempForcing  =  /* Temperature forcing on/off flag */
(PID.TID 0000.0001)                   T
(PID.TID 0000.0001)     ;
(PID.TID 0000.0001) doThetaClimRelax = /* apply SST relaxation on/off flag */
(PID.TID 0000.0001)                   F
(PID.TID 0000.0001)     ;
(PID.TID 0000.0001) tempIsActiveTr = /* Temp. is a dynamically Active Tracer */
(PID.TID 0000.0001)                   T
(PID.TID 0000.0001)     ;
(PID.TID 0000.0001) saltStepping =  /* Salinity equation on/off flag */
(PID.TID 0000.0001)                   T
(PID.TID 0000.0001)     ;
(PID.TID 0000.0001) saltAdvection = /* Salinity advection on/off flag */
(PID.TID 0000.0001)                   T
(PID.TID 0000.0001)     ;
(PID.TID 0000.0001) saltImplVertAdv = /* Sali. implicit vert. advection on/off */
(PID.TID 0000.0001)                   T
(PID.TID 0000.0001)     ;
(PID.TID 0000.0001) saltForcing  =  /* Salinity forcing on/off flag */
(PID.TID 0000.0001)                   T
(PID.TID 0000.0001)     ;
(PID.TID 0000.0001) doSaltClimRelax = /* apply SSS relaxation on/off flag */
(PID.TID 0000.0001)                   F
(PID.TID 0000.0001)     ;
(PID.TID 0000.0001) saltIsActiveTr = /* Salt  is a dynamically Active Tracer */
(PID.TID 0000.0001)                   T
(PID.TID 0000.0001)     ;
(PID.TID 0000.0001)  readBinaryPrec = /* Precision used for reading binary files */
(PID.TID 0000.0001)                      64
(PID.TID 0000.0001)     ;
(PID.TID 0000.0001) writeBinaryPrec = /* Precision used for writing binary files */
(PID.TID 0000.0001)                      32
(PID.TID 0000.0001)     ;
(PID.TID 0000.0001)  rwSuffixType =   /* select format of mds file suffix */
(PID.TID 0000.0001)                       0
(PID.TID 0000.0001)    = 0 : myIter (I10.10) ;   = 1 : 100*myTime (100th sec) ;
(PID.TID 0000.0001)    = 2 : myTime (seconds);   = 3 : myTime/360 (10th of hr);
(PID.TID 0000.0001)    = 4 : myTime/3600 (hours)
(PID.TID 0000.0001)     ;
(PID.TID 0000.0001)  globalFiles = /* write "global" (=not per tile) files */
(PID.TID 0000.0001)                   T
(PID.TID 0000.0001)     ;
(PID.TID 0000.0001)  useSingleCpuIO = /* only master MPI process does I/O */
(PID.TID 0000.0001)                   T
(PID.TID 0000.0001)     ;
(PID.TID 0000.0001)  useSingleCpuInput = /* only master process reads input */
(PID.TID 0000.0001)                   T
(PID.TID 0000.0001)     ;
(PID.TID 0000.0001) /* debLev[*]  : level of debug & auxiliary message printing */
(PID.TID 0000.0001) debLevZero =  0 ; /* level of disabled aux. msg printing */
(PID.TID 0000.0001)    debLevA =  1 ; /* level of minimum  aux. msg printing */
(PID.TID 0000.0001)    debLevB =  2 ; /* level of low aux. print (report read-file opening)*/
(PID.TID 0000.0001)    debLevC =  3 ; /* level of moderate debug prt (most pkgs debug msg) */
(PID.TID 0000.0001)    debLevD =  4 ; /* level of enhanced debug prt (add DEBUG_STATS prt) */
(PID.TID 0000.0001)    debLevE =  5 ; /* level of extensive debug printing */
(PID.TID 0000.0001) debugLevel =  /* select debug printing level */
(PID.TID 0000.0001)                       2
(PID.TID 0000.0001)     ;
(PID.TID 0000.0001)  plotLevel =  /* select PLOT_FIELD printing level */
(PID.TID 0000.0001)                       0
(PID.TID 0000.0001)     ;
(PID.TID 0000.0001) //
(PID.TID 0000.0001) // Elliptic solver(s) paramters ( PARM02 in namelist )
(PID.TID 0000.0001) //
(PID.TID 0000.0001) cg2dMaxIters =   /* Upper limit on 2d con. grad iterations  */
(PID.TID 0000.0001)                     300
(PID.TID 0000.0001)     ;
(PID.TID 0000.0001) cg2dChkResFreq =   /* 2d con. grad convergence test frequency */
(PID.TID 0000.0001)                       1
(PID.TID 0000.0001)     ;
(PID.TID 0000.0001) cg2dUseMinResSol= /* use cg2d last-iter(=0) / min-resid.(=1) solution */
(PID.TID 0000.0001)                       0
(PID.TID 0000.0001)     ;
(PID.TID 0000.0001) cg2dTargetResidual =   /* 2d con. grad target residual  */
(PID.TID 0000.0001)                 9.999999999999999E-12
(PID.TID 0000.0001)     ;
(PID.TID 0000.0001) cg2dTargetResWunit =   /* CG2d target residual [W units] */
(PID.TID 0000.0001)                -1.000000000000000E+00
(PID.TID 0000.0001)     ;
(PID.TID 0000.0001) cg2dPreCondFreq =   /* Freq. for updating cg2d preconditioner */
(PID.TID 0000.0001)                       1
(PID.TID 0000.0001)     ;
(PID.TID 0000.0001) useSRCGSolver =  /* use single reduction CG solver(s) */
(PID.TID 0000.0001)                   F
(PID.TID 0000.0001)     ;
(PID.TID 0000.0001) printResidualFreq = /* Freq. for printing CG residual */
(PID.TID 0000.0001)                       0
(PID.TID 0000.0001)     ;
(PID.TID 0000.0001) //
(PID.TID 0000.0001) // Time stepping paramters ( PARM03 in namelist )
(PID.TID 0000.0001) //
(PID.TID 0000.0001) deltaTMom =   /* Momentum equation timestep ( s ) */
(PID.TID 0000.0001)                 3.000000000000000E+02
(PID.TID 0000.0001)     ;
(PID.TID 0000.0001) deltaTFreeSurf = /* FreeSurface equation timestep ( s ) */
(PID.TID 0000.0001)                 3.000000000000000E+02
(PID.TID 0000.0001)     ;
(PID.TID 0000.0001) dTtracerLev =  /* Tracer equation timestep ( s ) */
(PID.TID 0000.0001)    90 @  3.000000000000000E+02              /* K =  1: 90 */
(PID.TID 0000.0001)     ;
(PID.TID 0000.0001) deltaTClock  =   /* Model clock timestep ( s ) */
(PID.TID 0000.0001)                 3.000000000000000E+02
(PID.TID 0000.0001)     ;
(PID.TID 0000.0001) cAdjFreq =   /* Convective adjustment interval ( s ) */
(PID.TID 0000.0001)                 3.000000000000000E+02
(PID.TID 0000.0001)     ;
(PID.TID 0000.0001) momForcingOutAB = /* =1: take Momentum Forcing out of Adams-Bash. stepping */
(PID.TID 0000.0001)                       1
(PID.TID 0000.0001)     ;
(PID.TID 0000.0001) tracForcingOutAB = /* =1: take T,S,pTr Forcing out of Adams-Bash. stepping */
(PID.TID 0000.0001)                       1
(PID.TID 0000.0001)     ;
(PID.TID 0000.0001) momDissip_In_AB = /* put Dissipation Tendency in Adams-Bash. stepping */
(PID.TID 0000.0001)                   T
(PID.TID 0000.0001)     ;
(PID.TID 0000.0001) doAB_onGtGs = /* apply AB on Tendencies (rather than on T,S)*/
(PID.TID 0000.0001)                   T
(PID.TID 0000.0001)     ;
(PID.TID 0000.0001) abEps =   /* Adams-Bashforth-2 stabilizing weight */
(PID.TID 0000.0001)                 1.000000000000000E-01
(PID.TID 0000.0001)     ;
(PID.TID 0000.0001) applyExchUV_early = /* Apply EXCH to U,V earlier in time-step */
(PID.TID 0000.0001)                   F
(PID.TID 0000.0001)     ;
(PID.TID 0000.0001) pickupStrictlyMatch= /* stop if pickup do not strictly match */
(PID.TID 0000.0001)                   T
(PID.TID 0000.0001)     ;
(PID.TID 0000.0001) nIter0   =   /* Run starting timestep number */
(PID.TID 0000.0001)                   11395
(PID.TID 0000.0001)     ;
(PID.TID 0000.0001) nTimeSteps = /* Number of timesteps */
(PID.TID 0000.0001)                      20
(PID.TID 0000.0001)     ;
(PID.TID 0000.0001) nEndIter =   /* Run ending timestep number */
(PID.TID 0000.0001)                   11415
(PID.TID 0000.0001)     ;
(PID.TID 0000.0001) baseTime =   /* Model base time ( s ) */
(PID.TID 0000.0001)                 0.000000000000000E+00
(PID.TID 0000.0001)     ;
(PID.TID 0000.0001) startTime =  /* Run start time ( s ) */
(PID.TID 0000.0001)                 3.418500000000000E+06
(PID.TID 0000.0001)     ;
(PID.TID 0000.0001) endTime  =   /* Integration ending time ( s ) */
(PID.TID 0000.0001)                 3.424500000000000E+06
(PID.TID 0000.0001)     ;
(PID.TID 0000.0001) pChkPtFreq = /* Permanent restart/pickup file interval ( s ) */
(PID.TID 0000.0001)                 3.110400000000000E+07
(PID.TID 0000.0001)     ;
(PID.TID 0000.0001) chkPtFreq  = /* Rolling restart/pickup file interval ( s ) */
(PID.TID 0000.0001)                 7.776000000000000E+06
(PID.TID 0000.0001)     ;
(PID.TID 0000.0001) pickup_write_mdsio =   /* Model IO flag. */
(PID.TID 0000.0001)                   T
(PID.TID 0000.0001)     ;
(PID.TID 0000.0001) pickup_read_mdsio =   /* Model IO flag. */
(PID.TID 0000.0001)                   T
(PID.TID 0000.0001)     ;
(PID.TID 0000.0001) writePickupAtEnd =   /* Model IO flag. */
(PID.TID 0000.0001)                   T
(PID.TID 0000.0001)     ;
(PID.TID 0000.0001) dumpFreq =   /* Model state write out interval ( s ). */
(PID.TID 0000.0001)                 3.000000000000000E+03
(PID.TID 0000.0001)     ;
(PID.TID 0000.0001) dumpInitAndLast= /* write out Initial & Last iter. model state */
(PID.TID 0000.0001)                   T
(PID.TID 0000.0001)     ;
(PID.TID 0000.0001) snapshot_mdsio =   /* Model IO flag. */
(PID.TID 0000.0001)                   T
(PID.TID 0000.0001)     ;
(PID.TID 0000.0001) monitorFreq =   /* Monitor output interval ( s ). */
(PID.TID 0000.0001)                 1.000000000000000E+00
(PID.TID 0000.0001)     ;
(PID.TID 0000.0001) monitorSelect = /* select group of variables to monitor */
(PID.TID 0000.0001)                       1
(PID.TID 0000.0001)     ;
(PID.TID 0000.0001) monitor_stdio =   /* Model IO flag. */
(PID.TID 0000.0001)                   T
(PID.TID 0000.0001)     ;
(PID.TID 0000.0001) externForcingPeriod =   /* forcing period (s) */
(PID.TID 0000.0001)                 0.000000000000000E+00
(PID.TID 0000.0001)     ;
(PID.TID 0000.0001) externForcingCycle =   /* period of the cyle (s). */
(PID.TID 0000.0001)                 0.000000000000000E+00
(PID.TID 0000.0001)     ;
(PID.TID 0000.0001) tauThetaClimRelax =   /* relaxation time scale (s) */
(PID.TID 0000.0001)                 0.000000000000000E+00
(PID.TID 0000.0001)     ;
(PID.TID 0000.0001) tauSaltClimRelax =   /* relaxation time scale (s) */
(PID.TID 0000.0001)                 0.000000000000000E+00
(PID.TID 0000.0001)     ;
(PID.TID 0000.0001) latBandClimRelax =   /* max. Lat. where relaxation */
(PID.TID 0000.0001)                 1.800000000000000E+02
(PID.TID 0000.0001)     ;
(PID.TID 0000.0001) //
(PID.TID 0000.0001) // Gridding paramters ( PARM04 in namelist )
(PID.TID 0000.0001) //
(PID.TID 0000.0001) usingCartesianGrid = /* Cartesian coordinates flag ( True/False ) */
(PID.TID 0000.0001)                   F
(PID.TID 0000.0001)     ;
(PID.TID 0000.0001) usingCylindricalGrid = /* Cylindrical coordinates flag ( True/False ) */
(PID.TID 0000.0001)                   F
(PID.TID 0000.0001)     ;
(PID.TID 0000.0001) usingSphericalPolarGrid = /* Spherical coordinates flag ( True/False ) */
(PID.TID 0000.0001)                   T
(PID.TID 0000.0001)     ;
(PID.TID 0000.0001) usingCurvilinearGrid = /* Curvilinear coordinates flag ( True/False ) */
(PID.TID 0000.0001)                   F
(PID.TID 0000.0001)     ;
(PID.TID 0000.0001) useMin4hFacEdges = /* set hFacW,S as minimum of adjacent hFacC factor */
(PID.TID 0000.0001)                   T
(PID.TID 0000.0001)     ;
(PID.TID 0000.0001) interViscAr_pCell = /* account for partial-cell in interior vert. viscosity */
(PID.TID 0000.0001)                   F
(PID.TID 0000.0001)     ;
(PID.TID 0000.0001) interDiffKr_pCell = /* account for partial-cell in interior vert. diffusion */
(PID.TID 0000.0001)                   F
(PID.TID 0000.0001)     ;
(PID.TID 0000.0001) pCellMix_select = /* option to enhance mixing near surface & bottom */
(PID.TID 0000.0001)                       0
(PID.TID 0000.0001)     ;
(PID.TID 0000.0001) selectSigmaCoord = /* Hybrid-Sigma Vert. Coordinate option */
(PID.TID 0000.0001)                       0
(PID.TID 0000.0001)     ;
(PID.TID 0000.0001) rSigmaBnd = /* r/sigma transition ( units of r ==  m ) */
(PID.TID 0000.0001)                 1.234567000000000E+05
(PID.TID 0000.0001)     ;
(PID.TID 0000.0001) rkSign =   /* index orientation relative to vertical coordinate */
(PID.TID 0000.0001)                -1.000000000000000E+00
(PID.TID 0000.0001)     ;
(PID.TID 0000.0001) gravitySign = /* gravity orientation relative to vertical coordinate */
(PID.TID 0000.0001)                -1.000000000000000E+00
(PID.TID 0000.0001)     ;
(PID.TID 0000.0001) seaLev_Z =  /* reference height of sea-level [m] */
(PID.TID 0000.0001)                 0.000000000000000E+00
(PID.TID 0000.0001)     ;
(PID.TID 0000.0001) top_Pres =  /* reference pressure at the top [Pa] */
(PID.TID 0000.0001)                 0.000000000000000E+00
(PID.TID 0000.0001)     ;
(PID.TID 0000.0001) mass2rUnit = /* convert mass per unit area [kg/m2] to r-units [m] */
(PID.TID 0000.0001)                 1.000000000000000E-03
(PID.TID 0000.0001)     ;
(PID.TID 0000.0001) rUnit2mass = /* convert r-units [m] to mass per unit area [kg/m2] */
(PID.TID 0000.0001)                 1.000000000000000E+03
(PID.TID 0000.0001)     ;
(PID.TID 0000.0001) drC =   /* C spacing ( units of r ) */
(PID.TID 0000.0001)                 5.000000000000000E+00,      /* K =  1 */
(PID.TID 0000.0001)    89 @  1.000000000000000E+01,             /* K =  2: 90 */
(PID.TID 0000.0001)                 5.000000000000000E+00       /* K = 91 */
(PID.TID 0000.0001)     ;
(PID.TID 0000.0001) drF =   /* W spacing ( units of r ) */
(PID.TID 0000.0001)    90 @  1.000000000000000E+01              /* K =  1: 90 */
(PID.TID 0000.0001)     ;
(PID.TID 0000.0001) delX = /* U spacing ( m - cartesian, degrees - spherical ) */
(PID.TID 0000.0001)     3 @  1.250000000000000E-01              /* I =  1:  3 */
(PID.TID 0000.0001)     ;
(PID.TID 0000.0001) delY = /* V spacing ( m - cartesian, degrees - spherical ) */
(PID.TID 0000.0001)   200 @  7.812500000000000E-03              /* J =  1:200 */
(PID.TID 0000.0001)     ;
(PID.TID 0000.0001) xgOrigin = /* X-axis origin of West  edge (cartesian: m, lat-lon: deg) */
(PID.TID 0000.0001)                -1.055000000000000E+02
(PID.TID 0000.0001)     ;
(PID.TID 0000.0001) ygOrigin = /* Y-axis origin of South edge (cartesian: m, lat-lon: deg) */
(PID.TID 0000.0001)                -7.544570000000000E+01
(PID.TID 0000.0001)     ;
(PID.TID 0000.0001) rSphere =  /* Radius ( ignored - cartesian, m - spherical ) */
(PID.TID 0000.0001)                 6.370000000000000E+06
(PID.TID 0000.0001)     ;
(PID.TID 0000.0001) deepAtmosphere = /* Deep/Shallow Atmosphere flag (True/False) */
(PID.TID 0000.0001)                   F
(PID.TID 0000.0001)     ;
(PID.TID 0000.0001) xC =  /* xC(:,1,:,1) : P-point X coord ( deg. or m if cartesian) */
(PID.TID 0000.0001)                -1.054375000000000E+02,      /* I =  1 */
(PID.TID 0000.0001)                -1.053125000000000E+02,      /* I =  2 */
(PID.TID 0000.0001)                -1.051875000000000E+02       /* I =  3 */
(PID.TID 0000.0001)     ;
(PID.TID 0000.0001) yC =  /* yC(1,:,1,:) : P-point Y coord ( deg. or m if cartesian) */
(PID.TID 0000.0001)                -7.544179375000000E+01,      /* J =  1 */
(PID.TID 0000.0001)                -7.543398125000000E+01,      /* J =  2 */
(PID.TID 0000.0001)                -7.542616875000000E+01,      /* J =  3 */
(PID.TID 0000.0001)      . . .
(PID.TID 0000.0001)                -7.507460625000000E+01,      /* J = 48 */
(PID.TID 0000.0001)                -7.506679375000000E+01,      /* J = 49 */
(PID.TID 0000.0001)                -7.505898125000000E+01,      /* J = 50 */
(PID.TID 0000.0001)                -7.505116875000000E+01,      /* J = 51 */
(PID.TID 0000.0001)                -7.504335625000000E+01,      /* J = 52 */
(PID.TID 0000.0001)                -7.503554375000000E+01,      /* J = 53 */
(PID.TID 0000.0001)      . . .
(PID.TID 0000.0001)                -7.468398125000000E+01,      /* J = 98 */
(PID.TID 0000.0001)                -7.467616875000000E+01,      /* J = 99 */
(PID.TID 0000.0001)                -7.466835625000000E+01,      /* J =100 */
(PID.TID 0000.0001)                -7.466054375000000E+01,      /* J =101 */
(PID.TID 0000.0001)                -7.465273125000000E+01,      /* J =102 */
(PID.TID 0000.0001)                -7.464491875000000E+01,      /* J =103 */
(PID.TID 0000.0001)      . . .
(PID.TID 0000.0001)                -7.429335625000000E+01,      /* J =148 */
(PID.TID 0000.0001)                -7.428554375000000E+01,      /* J =149 */
(PID.TID 0000.0001)                -7.427773125000000E+01,      /* J =150 */
(PID.TID 0000.0001)                -7.426991875000000E+01,      /* J =151 */
(PID.TID 0000.0001)                -7.426210625000000E+01,      /* J =152 */
(PID.TID 0000.0001)                -7.425429375000000E+01,      /* J =153 */
(PID.TID 0000.0001)      . . .
(PID.TID 0000.0001)                -7.390273125000000E+01,      /* J =198 */
(PID.TID 0000.0001)                -7.389491875000000E+01,      /* J =199 */
(PID.TID 0000.0001)                -7.388710625000000E+01       /* J =200 */
(PID.TID 0000.0001)     ;
(PID.TID 0000.0001) rcoord = /* P-point R coordinate (  units of r ) */
(PID.TID 0000.0001)                -5.000000000000000E+00,      /* K =  1 */
(PID.TID 0000.0001)                -1.500000000000000E+01,      /* K =  2 */
(PID.TID 0000.0001)                -2.500000000000000E+01,      /* K =  3 */
(PID.TID 0000.0001)                -3.500000000000000E+01,      /* K =  4 */
(PID.TID 0000.0001)                -4.500000000000000E+01,      /* K =  5 */
(PID.TID 0000.0001)                -5.500000000000000E+01,      /* K =  6 */
(PID.TID 0000.0001)                -6.500000000000000E+01,      /* K =  7 */
(PID.TID 0000.0001)                -7.500000000000000E+01,      /* K =  8 */
(PID.TID 0000.0001)                -8.500000000000000E+01,      /* K =  9 */
(PID.TID 0000.0001)                -9.500000000000000E+01,      /* K = 10 */
(PID.TID 0000.0001)                -1.050000000000000E+02,      /* K = 11 */
(PID.TID 0000.0001)                -1.150000000000000E+02,      /* K = 12 */
(PID.TID 0000.0001)                -1.250000000000000E+02,      /* K = 13 */
(PID.TID 0000.0001)                -1.350000000000000E+02,      /* K = 14 */
(PID.TID 0000.0001)                -1.450000000000000E+02,      /* K = 15 */
(PID.TID 0000.0001)                -1.550000000000000E+02,      /* K = 16 */
(PID.TID 0000.0001)                -1.650000000000000E+02,      /* K = 17 */
(PID.TID 0000.0001)                -1.750000000000000E+02,      /* K = 18 */
(PID.TID 0000.0001)                -1.850000000000000E+02,      /* K = 19 */
(PID.TID 0000.0001)                -1.950000000000000E+02,      /* K = 20 */
(PID.TID 0000.0001)                -2.050000000000000E+02,      /* K = 21 */
(PID.TID 0000.0001)                -2.150000000000000E+02,      /* K = 22 */
(PID.TID 0000.0001)                -2.250000000000000E+02,      /* K = 23 */
(PID.TID 0000.0001)                -2.350000000000000E+02,      /* K = 24 */
(PID.TID 0000.0001)                -2.450000000000000E+02,      /* K = 25 */
(PID.TID 0000.0001)                -2.550000000000000E+02,      /* K = 26 */
(PID.TID 0000.0001)                -2.650000000000000E+02,      /* K = 27 */
(PID.TID 0000.0001)                -2.750000000000000E+02,      /* K = 28 */
(PID.TID 0000.0001)                -2.850000000000000E+02,      /* K = 29 */
(PID.TID 0000.0001)                -2.950000000000000E+02,      /* K = 30 */
(PID.TID 0000.0001)                -3.050000000000000E+02,      /* K = 31 */
(PID.TID 0000.0001)                -3.150000000000000E+02,      /* K = 32 */
(PID.TID 0000.0001)                -3.250000000000000E+02,      /* K = 33 */
(PID.TID 0000.0001)                -3.350000000000000E+02,      /* K = 34 */
(PID.TID 0000.0001)                -3.450000000000000E+02,      /* K = 35 */
(PID.TID 0000.0001)                -3.550000000000000E+02,      /* K = 36 */
(PID.TID 0000.0001)                -3.650000000000000E+02,      /* K = 37 */
(PID.TID 0000.0001)                -3.750000000000000E+02,      /* K = 38 */
(PID.TID 0000.0001)                -3.850000000000000E+02,      /* K = 39 */
(PID.TID 0000.0001)                -3.950000000000000E+02,      /* K = 40 */
(PID.TID 0000.0001)                -4.050000000000000E+02,      /* K = 41 */
(PID.TID 0000.0001)                -4.150000000000000E+02,      /* K = 42 */
(PID.TID 0000.0001)                -4.250000000000000E+02,      /* K = 43 */
(PID.TID 0000.0001)                -4.350000000000000E+02,      /* K = 44 */
(PID.TID 0000.0001)                -4.450000000000000E+02,      /* K = 45 */
(PID.TID 0000.0001)                -4.550000000000000E+02,      /* K = 46 */
(PID.TID 0000.0001)                -4.650000000000000E+02,      /* K = 47 */
(PID.TID 0000.0001)                -4.750000000000000E+02,      /* K = 48 */
(PID.TID 0000.0001)                -4.850000000000000E+02,      /* K = 49 */
(PID.TID 0000.0001)                -4.950000000000000E+02,      /* K = 50 */
(PID.TID 0000.0001)                -5.050000000000000E+02,      /* K = 51 */
(PID.TID 0000.0001)                -5.150000000000000E+02,      /* K = 52 */
(PID.TID 0000.0001)                -5.250000000000000E+02,      /* K = 53 */
(PID.TID 0000.0001)                -5.350000000000000E+02,      /* K = 54 */
(PID.TID 0000.0001)                -5.450000000000000E+02,      /* K = 55 */
(PID.TID 0000.0001)                -5.550000000000000E+02,      /* K = 56 */
(PID.TID 0000.0001)                -5.650000000000000E+02,      /* K = 57 */
(PID.TID 0000.0001)                -5.750000000000000E+02,      /* K = 58 */
(PID.TID 0000.0001)                -5.850000000000000E+02,      /* K = 59 */
(PID.TID 0000.0001)                -5.950000000000000E+02,      /* K = 60 */
(PID.TID 0000.0001)                -6.050000000000000E+02,      /* K = 61 */
(PID.TID 0000.0001)                -6.150000000000000E+02,      /* K = 62 */
(PID.TID 0000.0001)                -6.250000000000000E+02,      /* K = 63 */
(PID.TID 0000.0001)                -6.350000000000000E+02,      /* K = 64 */
(PID.TID 0000.0001)                -6.450000000000000E+02,      /* K = 65 */
(PID.TID 0000.0001)                -6.550000000000000E+02,      /* K = 66 */
(PID.TID 0000.0001)                -6.650000000000000E+02,      /* K = 67 */
(PID.TID 0000.0001)                -6.750000000000000E+02,      /* K = 68 */
(PID.TID 0000.0001)                -6.850000000000000E+02,      /* K = 69 */
(PID.TID 0000.0001)                -6.950000000000000E+02,      /* K = 70 */
(PID.TID 0000.0001)                -7.050000000000000E+02,      /* K = 71 */
(PID.TID 0000.0001)                -7.150000000000000E+02,      /* K = 72 */
(PID.TID 0000.0001)                -7.250000000000000E+02,      /* K = 73 */
(PID.TID 0000.0001)                -7.350000000000000E+02,      /* K = 74 */
(PID.TID 0000.0001)                -7.450000000000000E+02,      /* K = 75 */
(PID.TID 0000.0001)                -7.550000000000000E+02,      /* K = 76 */
(PID.TID 0000.0001)                -7.650000000000000E+02,      /* K = 77 */
(PID.TID 0000.0001)                -7.750000000000000E+02,      /* K = 78 */
(PID.TID 0000.0001)                -7.850000000000000E+02,      /* K = 79 */
(PID.TID 0000.0001)                -7.950000000000000E+02,      /* K = 80 */
(PID.TID 0000.0001)                -8.050000000000000E+02,      /* K = 81 */
(PID.TID 0000.0001)                -8.150000000000000E+02,      /* K = 82 */
(PID.TID 0000.0001)                -8.250000000000000E+02,      /* K = 83 */
(PID.TID 0000.0001)                -8.350000000000000E+02,      /* K = 84 */
(PID.TID 0000.0001)                -8.450000000000000E+02,      /* K = 85 */
(PID.TID 0000.0001)                -8.550000000000000E+02,      /* K = 86 */
(PID.TID 0000.0001)                -8.650000000000000E+02,      /* K = 87 */
(PID.TID 0000.0001)                -8.750000000000000E+02,      /* K = 88 */
(PID.TID 0000.0001)                -8.850000000000000E+02,      /* K = 89 */
(PID.TID 0000.0001)                -8.950000000000000E+02       /* K = 90 */
(PID.TID 0000.0001)     ;
(PID.TID 0000.0001) rF =   /* W-Interf. R coordinate (  units of r ) */
(PID.TID 0000.0001)                 0.000000000000000E+00,      /* K =  1 */
(PID.TID 0000.0001)                -1.000000000000000E+01,      /* K =  2 */
(PID.TID 0000.0001)                -2.000000000000000E+01,      /* K =  3 */
(PID.TID 0000.0001)                -3.000000000000000E+01,      /* K =  4 */
(PID.TID 0000.0001)                -4.000000000000000E+01,      /* K =  5 */
(PID.TID 0000.0001)                -5.000000000000000E+01,      /* K =  6 */
(PID.TID 0000.0001)                -6.000000000000000E+01,      /* K =  7 */
(PID.TID 0000.0001)                -7.000000000000000E+01,      /* K =  8 */
(PID.TID 0000.0001)                -8.000000000000000E+01,      /* K =  9 */
(PID.TID 0000.0001)                -9.000000000000000E+01,      /* K = 10 */
(PID.TID 0000.0001)                -1.000000000000000E+02,      /* K = 11 */
(PID.TID 0000.0001)                -1.100000000000000E+02,      /* K = 12 */
(PID.TID 0000.0001)                -1.200000000000000E+02,      /* K = 13 */
(PID.TID 0000.0001)                -1.300000000000000E+02,      /* K = 14 */
(PID.TID 0000.0001)                -1.400000000000000E+02,      /* K = 15 */
(PID.TID 0000.0001)                -1.500000000000000E+02,      /* K = 16 */
(PID.TID 0000.0001)                -1.600000000000000E+02,      /* K = 17 */
(PID.TID 0000.0001)                -1.700000000000000E+02,      /* K = 18 */
(PID.TID 0000.0001)                -1.800000000000000E+02,      /* K = 19 */
(PID.TID 0000.0001)                -1.900000000000000E+02,      /* K = 20 */
(PID.TID 0000.0001)                -2.000000000000000E+02,      /* K = 21 */
(PID.TID 0000.0001)                -2.100000000000000E+02,      /* K = 22 */
(PID.TID 0000.0001)                -2.200000000000000E+02,      /* K = 23 */
(PID.TID 0000.0001)                -2.300000000000000E+02,      /* K = 24 */
(PID.TID 0000.0001)                -2.400000000000000E+02,      /* K = 25 */
(PID.TID 0000.0001)                -2.500000000000000E+02,      /* K = 26 */
(PID.TID 0000.0001)                -2.600000000000000E+02,      /* K = 27 */
(PID.TID 0000.0001)                -2.700000000000000E+02,      /* K = 28 */
(PID.TID 0000.0001)                -2.800000000000000E+02,      /* K = 29 */
(PID.TID 0000.0001)                -2.900000000000000E+02,      /* K = 30 */
(PID.TID 0000.0001)                -3.000000000000000E+02,      /* K = 31 */
(PID.TID 0000.0001)                -3.100000000000000E+02,      /* K = 32 */
(PID.TID 0000.0001)                -3.200000000000000E+02,      /* K = 33 */
(PID.TID 0000.0001)                -3.300000000000000E+02,      /* K = 34 */
(PID.TID 0000.0001)                -3.400000000000000E+02,      /* K = 35 */
(PID.TID 0000.0001)                -3.500000000000000E+02,      /* K = 36 */
(PID.TID 0000.0001)                -3.600000000000000E+02,      /* K = 37 */
(PID.TID 0000.0001)                -3.700000000000000E+02,      /* K = 38 */
(PID.TID 0000.0001)                -3.800000000000000E+02,      /* K = 39 */
(PID.TID 0000.0001)                -3.900000000000000E+02,      /* K = 40 */
(PID.TID 0000.0001)                -4.000000000000000E+02,      /* K = 41 */
(PID.TID 0000.0001)                -4.100000000000000E+02,      /* K = 42 */
(PID.TID 0000.0001)                -4.200000000000000E+02,      /* K = 43 */
(PID.TID 0000.0001)                -4.300000000000000E+02,      /* K = 44 */
(PID.TID 0000.0001)                -4.400000000000000E+02,      /* K = 45 */
(PID.TID 0000.0001)                -4.500000000000000E+02,      /* K = 46 */
(PID.TID 0000.0001)                -4.600000000000000E+02,      /* K = 47 */
(PID.TID 0000.0001)                -4.700000000000000E+02,      /* K = 48 */
(PID.TID 0000.0001)                -4.800000000000000E+02,      /* K = 49 */
(PID.TID 0000.0001)                -4.900000000000000E+02,      /* K = 50 */
(PID.TID 0000.0001)                -5.000000000000000E+02,      /* K = 51 */
(PID.TID 0000.0001)                -5.100000000000000E+02,      /* K = 52 */
(PID.TID 0000.0001)                -5.200000000000000E+02,      /* K = 53 */
(PID.TID 0000.0001)                -5.300000000000000E+02,      /* K = 54 */
(PID.TID 0000.0001)                -5.400000000000000E+02,      /* K = 55 */
(PID.TID 0000.0001)                -5.500000000000000E+02,      /* K = 56 */
(PID.TID 0000.0001)                -5.600000000000000E+02,      /* K = 57 */
(PID.TID 0000.0001)                -5.700000000000000E+02,      /* K = 58 */
(PID.TID 0000.0001)                -5.800000000000000E+02,      /* K = 59 */
(PID.TID 0000.0001)                -5.900000000000000E+02,      /* K = 60 */
(PID.TID 0000.0001)                -6.000000000000000E+02,      /* K = 61 */
(PID.TID 0000.0001)                -6.100000000000000E+02,      /* K = 62 */
(PID.TID 0000.0001)                -6.200000000000000E+02,      /* K = 63 */
(PID.TID 0000.0001)                -6.300000000000000E+02,      /* K = 64 */
(PID.TID 0000.0001)                -6.400000000000000E+02,      /* K = 65 */
(PID.TID 0000.0001)                -6.500000000000000E+02,      /* K = 66 */
(PID.TID 0000.0001)                -6.600000000000000E+02,      /* K = 67 */
(PID.TID 0000.0001)                -6.700000000000000E+02,      /* K = 68 */
(PID.TID 0000.0001)                -6.800000000000000E+02,      /* K = 69 */
(PID.TID 0000.0001)                -6.900000000000000E+02,      /* K = 70 */
(PID.TID 0000.0001)                -7.000000000000000E+02,      /* K = 71 */
(PID.TID 0000.0001)                -7.100000000000000E+02,      /* K = 72 */
(PID.TID 0000.0001)                -7.200000000000000E+02,      /* K = 73 */
(PID.TID 0000.0001)                -7.300000000000000E+02,      /* K = 74 */
(PID.TID 0000.0001)                -7.400000000000000E+02,      /* K = 75 */
(PID.TID 0000.0001)                -7.500000000000000E+02,      /* K = 76 */
(PID.TID 0000.0001)                -7.600000000000000E+02,      /* K = 77 */
(PID.TID 0000.0001)                -7.700000000000000E+02,      /* K = 78 */
(PID.TID 0000.0001)                -7.800000000000000E+02,      /* K = 79 */
(PID.TID 0000.0001)                -7.900000000000000E+02,      /* K = 80 */
(PID.TID 0000.0001)                -8.000000000000000E+02,      /* K = 81 */
(PID.TID 0000.0001)                -8.100000000000000E+02,      /* K = 82 */
(PID.TID 0000.0001)                -8.200000000000000E+02,      /* K = 83 */
(PID.TID 0000.0001)                -8.300000000000000E+02,      /* K = 84 */
(PID.TID 0000.0001)                -8.400000000000000E+02,      /* K = 85 */
(PID.TID 0000.0001)                -8.500000000000000E+02,      /* K = 86 */
(PID.TID 0000.0001)                -8.600000000000000E+02,      /* K = 87 */
(PID.TID 0000.0001)                -8.700000000000000E+02,      /* K = 88 */
(PID.TID 0000.0001)                -8.800000000000000E+02,      /* K = 89 */
(PID.TID 0000.0001)                -8.900000000000000E+02,      /* K = 90 */
(PID.TID 0000.0001)                -9.000000000000000E+02       /* K = 91 */
(PID.TID 0000.0001)     ;
(PID.TID 0000.0001) deepFacC = /* deep-model grid factor @ cell-Center (-) */
(PID.TID 0000.0001)    90 @  1.000000000000000E+00              /* K =  1: 90 */
(PID.TID 0000.0001)     ;
(PID.TID 0000.0001) deepFacF = /* deep-model grid factor @ W-Interface (-) */
(PID.TID 0000.0001)    91 @  1.000000000000000E+00              /* K =  1: 91 */
(PID.TID 0000.0001)     ;
(PID.TID 0000.0001) rVel2wUnit = /* convert units: rVel -> wSpeed (=1 if z-coord)*/
(PID.TID 0000.0001)    91 @  1.000000000000000E+00              /* K =  1: 91 */
(PID.TID 0000.0001)     ;
(PID.TID 0000.0001) wUnit2rVel = /* convert units: wSpeed -> rVel (=1 if z-coord)*/
(PID.TID 0000.0001)    91 @  1.000000000000000E+00              /* K =  1: 91 */
(PID.TID 0000.0001)     ;
(PID.TID 0000.0001) dBdrRef = /* Vertical grad. of reference buoyancy [(m/s/r)^2] */
(PID.TID 0000.0001)    90 @  0.000000000000000E+00              /* K =  1: 90 */
(PID.TID 0000.0001)     ;
(PID.TID 0000.0001) rotateGrid = /* use rotated grid ( True/False ) */
(PID.TID 0000.0001)                   F
(PID.TID 0000.0001)     ;
(PID.TID 0000.0001) phiEuler = /* Euler angle, rotation about original z-coordinate [rad] */
(PID.TID 0000.0001)                 0.000000000000000E+00
(PID.TID 0000.0001)     ;
(PID.TID 0000.0001) thetaEuler = /* Euler angle, rotation about new x-coordinate [rad] */
(PID.TID 0000.0001)                 0.000000000000000E+00
(PID.TID 0000.0001)     ;
(PID.TID 0000.0001) psiEuler = /* Euler angle, rotation about new z-coordinate [rad] */
(PID.TID 0000.0001)                 0.000000000000000E+00
(PID.TID 0000.0001)     ;
(PID.TID 0000.0001) dxF =  /* dxF(:,1,:,1) ( units: m ) */
(PID.TID 0000.0001)     3 @  3.493243558711626E+03              /* I =  1:  3 */
(PID.TID 0000.0001)     ;
(PID.TID 0000.0001) dxF =  /* dxF(1,:,1,:) ( units: m ) */
(PID.TID 0000.0001)                 3.493243558711626E+03,      /* J =  1 */
(PID.TID 0000.0001)                 3.495077619691311E+03,      /* J =  2 */
(PID.TID 0000.0001)                 3.496911615689215E+03,      /* J =  3 */
(PID.TID 0000.0001)      . . .
(PID.TID 0000.0001)                 3.579373626761998E+03,      /* J = 48 */
(PID.TID 0000.0001)                 3.581204596757318E+03,      /* J = 49 */
(PID.TID 0000.0001)                 3.583035500169550E+03,      /* J = 50 */
(PID.TID 0000.0001)                 3.584866336964656E+03,      /* J = 51 */
(PID.TID 0000.0001)                 3.586697107108589E+03,      /* J = 52 */
(PID.TID 0000.0001)                 3.588527810567320E+03,      /* J = 53 */
(PID.TID 0000.0001)      . . .
(PID.TID 0000.0001)                 3.670839895332228E+03,      /* J = 98 */
(PID.TID 0000.0001)                 3.672667494497579E+03,      /* J = 99 */
(PID.TID 0000.0001)                 3.674495025379331E+03,      /* J =100 */
(PID.TID 0000.0001)                 3.676322487943506E+03,      /* J =101 */
(PID.TID 0000.0001)                 3.678149882156126E+03,      /* J =102 */
(PID.TID 0000.0001)                 3.679977207983216E+03,      /* J =103 */
(PID.TID 0000.0001)      . . .
(PID.TID 0000.0001)                 3.762135540512856E+03,      /* J =148 */
(PID.TID 0000.0001)                 3.763959683900060E+03,      /* J =149 */
(PID.TID 0000.0001)                 3.765783757306327E+03,      /* J =150 */
(PID.TID 0000.0001)                 3.767607760697741E+03,      /* J =151 */
(PID.TID 0000.0001)                 3.769431694040391E+03,      /* J =152 */
(PID.TID 0000.0001)                 3.771255557300366E+03,      /* J =153 */
(PID.TID 0000.0001)      . . .
(PID.TID 0000.0001)                 3.853256318813865E+03,      /* J =198 */
(PID.TID 0000.0001)                 3.855076921635369E+03,      /* J =199 */
(PID.TID 0000.0001)                 3.856897452781851E+03       /* J =200 */
(PID.TID 0000.0001)     ;
(PID.TID 0000.0001) dyF =  /* dyF(:,1,:,1) ( units: m ) */
(PID.TID 0000.0001)     3 @  8.685740105628031E+02              /* I =  1:  3 */
(PID.TID 0000.0001)     ;
(PID.TID 0000.0001) dyF =  /* dyF(1,:,1,:) ( units: m ) */
(PID.TID 0000.0001)   200 @  8.685740105628031E+02              /* J =  1:200 */
(PID.TID 0000.0001)     ;
(PID.TID 0000.0001) dxG =  /* dxG(:,1,:,1) ( units: m ) */
(PID.TID 0000.0001)     3 @  3.492326503864269E+03              /* I =  1:  3 */
(PID.TID 0000.0001)     ;
(PID.TID 0000.0001) dxG =  /* dxG(1,:,1,:) ( units: m ) */
(PID.TID 0000.0001)                 3.492326503864269E+03,      /* J =  1 */
(PID.TID 0000.0001)                 3.494160597322058E+03,      /* J =  2 */
(PID.TID 0000.0001)                 3.495994625815115E+03,      /* J =  3 */
(PID.TID 0000.0001)      . . .
(PID.TID 0000.0001)                 3.578458116806316E+03,      /* J = 48 */
(PID.TID 0000.0001)                 3.580289120080414E+03,      /* J = 49 */
(PID.TID 0000.0001)                 3.582120056788447E+03,      /* J = 50 */
(PID.TID 0000.0001)                 3.583950926896370E+03,      /* J = 51 */
(PID.TID 0000.0001)                 3.585781730370146E+03,      /* J = 52 */
(PID.TID 0000.0001)                 3.587612467175734E+03,      /* J = 53 */
(PID.TID 0000.0001)      . . .
(PID.TID 0000.0001)                 3.669926070153822E+03,      /* J = 98 */
(PID.TID 0000.0001)                 3.671753703448232E+03,      /* J = 99 */
(PID.TID 0000.0001)                 3.673581268476031E+03,      /* J =100 */
(PID.TID 0000.0001)                 3.675408765203241E+03,      /* J =101 */
(PID.TID 0000.0001)                 3.677236193595885E+03,      /* J =102 */
(PID.TID 0000.0001)                 3.679063553619987E+03,      /* J =103 */
(PID.TID 0000.0001)      . . .
(PID.TID 0000.0001)                 3.761223442587002E+03,      /* J =148 */
(PID.TID 0000.0001)                 3.763047620951957E+03,      /* J =149 */
(PID.TID 0000.0001)                 3.764871729352928E+03,      /* J =150 */
(PID.TID 0000.0001)                 3.766695767756008E+03,      /* J =151 */
(PID.TID 0000.0001)                 3.768519736127280E+03,      /* J =152 */
(PID.TID 0000.0001)                 3.770343634432832E+03,      /* J =153 */
(PID.TID 0000.0001)      . . .
(PID.TID 0000.0001)                 3.852345990535555E+03,      /* J =198 */
(PID.TID 0000.0001)                 3.854166629181878E+03,      /* J =199 */
(PID.TID 0000.0001)                 3.855987196170102E+03       /* J =200 */
(PID.TID 0000.0001)     ;
(PID.TID 0000.0001) dyG =  /* dyG(:,1,:,1) ( units: m ) */
(PID.TID 0000.0001)     3 @  8.685740105628031E+02              /* I =  1:  3 */
(PID.TID 0000.0001)     ;
(PID.TID 0000.0001) dyG =  /* dyG(1,:,1,:) ( units: m ) */
(PID.TID 0000.0001)   200 @  8.685740105628031E+02              /* J =  1:200 */
(PID.TID 0000.0001)     ;
(PID.TID 0000.0001) dxC =  /* dxC(:,1,:,1) ( units: m ) */
(PID.TID 0000.0001)     3 @  3.493243558711626E+03              /* I =  1:  3 */
(PID.TID 0000.0001)     ;
(PID.TID 0000.0001) dxC =  /* dxC(1,:,1,:) ( units: m ) */
(PID.TID 0000.0001)                 3.493243558711626E+03,      /* J =  1 */
(PID.TID 0000.0001)                 3.495077619691311E+03,      /* J =  2 */
(PID.TID 0000.0001)                 3.496911615689215E+03,      /* J =  3 */
(PID.TID 0000.0001)      . . .
(PID.TID 0000.0001)                 3.579373626761998E+03,      /* J = 48 */
(PID.TID 0000.0001)                 3.581204596757318E+03,      /* J = 49 */
(PID.TID 0000.0001)                 3.583035500169550E+03,      /* J = 50 */
(PID.TID 0000.0001)                 3.584866336964656E+03,      /* J = 51 */
(PID.TID 0000.0001)                 3.586697107108589E+03,      /* J = 52 */
(PID.TID 0000.0001)                 3.588527810567320E+03,      /* J = 53 */
(PID.TID 0000.0001)      . . .
(PID.TID 0000.0001)                 3.670839895332228E+03,      /* J = 98 */
(PID.TID 0000.0001)                 3.672667494497579E+03,      /* J = 99 */
(PID.TID 0000.0001)                 3.674495025379331E+03,      /* J =100 */
(PID.TID 0000.0001)                 3.676322487943506E+03,      /* J =101 */
(PID.TID 0000.0001)                 3.678149882156126E+03,      /* J =102 */
(PID.TID 0000.0001)                 3.679977207983216E+03,      /* J =103 */
(PID.TID 0000.0001)      . . .
(PID.TID 0000.0001)                 3.762135540512856E+03,      /* J =148 */
(PID.TID 0000.0001)                 3.763959683900060E+03,      /* J =149 */
(PID.TID 0000.0001)                 3.765783757306327E+03,      /* J =150 */
(PID.TID 0000.0001)                 3.767607760697741E+03,      /* J =151 */
(PID.TID 0000.0001)                 3.769431694040391E+03,      /* J =152 */
(PID.TID 0000.0001)                 3.771255557300366E+03,      /* J =153 */
(PID.TID 0000.0001)      . . .
(PID.TID 0000.0001)                 3.853256318813865E+03,      /* J =198 */
(PID.TID 0000.0001)                 3.855076921635369E+03,      /* J =199 */
(PID.TID 0000.0001)                 3.856897452781851E+03       /* J =200 */
(PID.TID 0000.0001)     ;
(PID.TID 0000.0001) dyC =  /* dyC(:,1,:,1) ( units: m ) */
(PID.TID 0000.0001)     3 @  8.685740105628031E+02              /* I =  1:  3 */
(PID.TID 0000.0001)     ;
(PID.TID 0000.0001) dyC =  /* dyC(1,:,1,:) ( units: m ) */
(PID.TID 0000.0001)   200 @  8.685740105628031E+02              /* J =  1:200 */
(PID.TID 0000.0001)     ;
(PID.TID 0000.0001) dxV =  /* dxV(:,1,:,1) ( units: m ) */
(PID.TID 0000.0001)     3 @  3.492326503864269E+03              /* I =  1:  3 */
(PID.TID 0000.0001)     ;
(PID.TID 0000.0001) dxV =  /* dxV(1,:,1,:) ( units: m ) */
(PID.TID 0000.0001)                 3.492326503864269E+03,      /* J =  1 */
(PID.TID 0000.0001)                 3.494160597322058E+03,      /* J =  2 */
(PID.TID 0000.0001)                 3.495994625815115E+03,      /* J =  3 */
(PID.TID 0000.0001)      . . .
(PID.TID 0000.0001)                 3.578458116806316E+03,      /* J = 48 */
(PID.TID 0000.0001)                 3.580289120080414E+03,      /* J = 49 */
(PID.TID 0000.0001)                 3.582120056788447E+03,      /* J = 50 */
(PID.TID 0000.0001)                 3.583950926896370E+03,      /* J = 51 */
(PID.TID 0000.0001)                 3.585781730370146E+03,      /* J = 52 */
(PID.TID 0000.0001)                 3.587612467175734E+03,      /* J = 53 */
(PID.TID 0000.0001)      . . .
(PID.TID 0000.0001)                 3.669926070153822E+03,      /* J = 98 */
(PID.TID 0000.0001)                 3.671753703448232E+03,      /* J = 99 */
(PID.TID 0000.0001)                 3.673581268476031E+03,      /* J =100 */
(PID.TID 0000.0001)                 3.675408765203241E+03,      /* J =101 */
(PID.TID 0000.0001)                 3.677236193595885E+03,      /* J =102 */
(PID.TID 0000.0001)                 3.679063553619987E+03,      /* J =103 */
(PID.TID 0000.0001)      . . .
(PID.TID 0000.0001)                 3.761223442587002E+03,      /* J =148 */
(PID.TID 0000.0001)                 3.763047620951957E+03,      /* J =149 */
(PID.TID 0000.0001)                 3.764871729352928E+03,      /* J =150 */
(PID.TID 0000.0001)                 3.766695767756008E+03,      /* J =151 */
(PID.TID 0000.0001)                 3.768519736127280E+03,      /* J =152 */
(PID.TID 0000.0001)                 3.770343634432832E+03,      /* J =153 */
(PID.TID 0000.0001)      . . .
(PID.TID 0000.0001)                 3.852345990535555E+03,      /* J =198 */
(PID.TID 0000.0001)                 3.854166629181878E+03,      /* J =199 */
(PID.TID 0000.0001)                 3.855987196170102E+03       /* J =200 */
(PID.TID 0000.0001)     ;
(PID.TID 0000.0001) dyU =  /* dyU(:,1,:,1) ( units: m ) */
(PID.TID 0000.0001)     3 @  8.685740105628031E+02              /* I =  1:  3 */
(PID.TID 0000.0001)     ;
(PID.TID 0000.0001) dyU =  /* dyU(1,:,1,:) ( units: m ) */
(PID.TID 0000.0001)   200 @  8.685740105628031E+02              /* J =  1:200 */
(PID.TID 0000.0001)     ;
(PID.TID 0000.0001) rA  =  /* rA (:,1,:,1) ( units: m^2 ) */
(PID.TID 0000.0001)     3 @  3.034140565311787E+06              /* I =  1:  3 */
(PID.TID 0000.0001)     ;
(PID.TID 0000.0001) rA  =  /* rA (1,:,1,:) ( units: m^2 ) */
(PID.TID 0000.0001)                 3.034140565311787E+06,      /* J =  1 */
(PID.TID 0000.0001)                 3.035733583016748E+06,      /* J =  2 */
(PID.TID 0000.0001)                 3.037326544268204E+06,      /* J =  3 */
(PID.TID 0000.0001)      . . .
(PID.TID 0000.0001)                 3.108950903892753E+06,      /* J = 48 */
(PID.TID 0000.0001)                 3.110541236842415E+06,      /* J = 49 */
(PID.TID 0000.0001)                 3.112131511962616E+06,      /* J = 50 */
(PID.TID 0000.0001)                 3.113721729214045E+06,      /* J = 51 */
(PID.TID 0000.0001)                 3.115311888586871E+06,      /* J = 52 */
(PID.TID 0000.0001)                 3.116901990022127E+06,      /* J = 53 */
(PID.TID 0000.0001)      . . .
(PID.TID 0000.0001)                 3.188396127550019E+06,      /* J = 98 */
(PID.TID 0000.0001)                 3.189983532691603E+06,      /* J = 99 */
(PID.TID 0000.0001)                 3.191570878509831E+06,      /* J =100 */
(PID.TID 0000.0001)                 3.193158165004705E+06,      /* J =101 */
(PID.TID 0000.0001)                 3.194745392117253E+06,      /* J =102 */
(PID.TID 0000.0001)                 3.196332559837649E+06,      /* J =103 */
(PID.TID 0000.0001)      . . .
(PID.TID 0000.0001)                 3.267693152168335E+06,      /* J =148 */
(PID.TID 0000.0001)                 3.269277555701464E+06,      /* J =149 */
(PID.TID 0000.0001)                 3.270861898466484E+06,      /* J =150 */
(PID.TID 0000.0001)                 3.272446180404426E+06,      /* J =151 */
(PID.TID 0000.0001)                 3.274030401495632E+06,      /* J =152 */
(PID.TID 0000.0001)                 3.275614561720447E+06,      /* J =153 */
(PID.TID 0000.0001)      . . .
(PID.TID 0000.0001)                 3.346838291964839E+06,      /* J =198 */
(PID.TID 0000.0001)                 3.348419620256216E+06,      /* J =199 */
(PID.TID 0000.0001)                 3.350000886305247E+06       /* J =200 */
(PID.TID 0000.0001)     ;
(PID.TID 0000.0001) rAw =  /* rAw(:,1,:,1) ( units: m^2 ) */
(PID.TID 0000.0001)     3 @  3.034140565311787E+06              /* I =  1:  3 */
(PID.TID 0000.0001)     ;
(PID.TID 0000.0001) rAw =  /* rAw(1,:,1,:) ( units: m^2 ) */
(PID.TID 0000.0001)                 3.034140565311787E+06,      /* J =  1 */
(PID.TID 0000.0001)                 3.035733583016748E+06,      /* J =  2 */
(PID.TID 0000.0001)                 3.037326544268204E+06,      /* J =  3 */
(PID.TID 0000.0001)      . . .
(PID.TID 0000.0001)                 3.108950903892753E+06,      /* J = 48 */
(PID.TID 0000.0001)                 3.110541236842415E+06,      /* J = 49 */
(PID.TID 0000.0001)                 3.112131511962616E+06,      /* J = 50 */
(PID.TID 0000.0001)                 3.113721729214045E+06,      /* J = 51 */
(PID.TID 0000.0001)                 3.115311888586871E+06,      /* J = 52 */
(PID.TID 0000.0001)                 3.116901990022127E+06,      /* J = 53 */
(PID.TID 0000.0001)      . . .
(PID.TID 0000.0001)                 3.188396127550019E+06,      /* J = 98 */
(PID.TID 0000.0001)                 3.189983532691603E+06,      /* J = 99 */
(PID.TID 0000.0001)                 3.191570878509831E+06,      /* J =100 */
(PID.TID 0000.0001)                 3.193158165004705E+06,      /* J =101 */
(PID.TID 0000.0001)                 3.194745392117253E+06,      /* J =102 */
(PID.TID 0000.0001)                 3.196332559837649E+06,      /* J =103 */
(PID.TID 0000.0001)      . . .
(PID.TID 0000.0001)                 3.267693152168335E+06,      /* J =148 */
(PID.TID 0000.0001)                 3.269277555701464E+06,      /* J =149 */
(PID.TID 0000.0001)                 3.270861898466484E+06,      /* J =150 */
(PID.TID 0000.0001)                 3.272446180404426E+06,      /* J =151 */
(PID.TID 0000.0001)                 3.274030401495632E+06,      /* J =152 */
(PID.TID 0000.0001)                 3.275614561720447E+06,      /* J =153 */
(PID.TID 0000.0001)      . . .
(PID.TID 0000.0001)                 3.346838291964839E+06,      /* J =198 */
(PID.TID 0000.0001)                 3.348419620256216E+06,      /* J =199 */
(PID.TID 0000.0001)                 3.350000886305247E+06       /* J =200 */
(PID.TID 0000.0001)     ;
(PID.TID 0000.0001) rAs =  /* rAs(:,1,:,1) ( units: m^2 ) */
(PID.TID 0000.0001)     3 @  3.033344035308899E+06              /* I =  1:  3 */
(PID.TID 0000.0001)     ;
(PID.TID 0000.0001) rAs =  /* rAs(1,:,1,:) ( units: m^2 ) */
(PID.TID 0000.0001)                 3.033344035308899E+06,      /* J =  1 */
(PID.TID 0000.0001)                 3.034937081211127E+06,      /* J =  2 */
(PID.TID 0000.0001)                 3.036530070699164E+06,      /* J =  3 */
(PID.TID 0000.0001)      . . .
(PID.TID 0000.0001)                 3.108155715741703E+06,      /* J = 48 */
(PID.TID 0000.0001)                 3.109746077586438E+06,      /* J = 49 */
(PID.TID 0000.0001)                 3.111336381641027E+06,      /* J = 50 */
(PID.TID 0000.0001)                 3.112926627817013E+06,      /* J = 51 */
(PID.TID 0000.0001)                 3.114516816134055E+06,      /* J = 52 */
(PID.TID 0000.0001)                 3.116106946543010E+06,      /* J = 53 */
(PID.TID 0000.0001)      . . .
(PID.TID 0000.0001)                 3.187602402747711E+06,      /* J = 98 */
(PID.TID 0000.0001)                 3.189189837531316E+06,      /* J = 99 */
(PID.TID 0000.0001)                 3.190777213021051E+06,      /* J =100 */
(PID.TID 0000.0001)                 3.192364529177601E+06,      /* J =101 */
(PID.TID 0000.0001)                 3.193951785981312E+06,      /* J =102 */
(PID.TID 0000.0001)                 3.195538983412527E+06,      /* J =103 */
(PID.TID 0000.0001)      . . .
(PID.TID 0000.0001)                 3.266900927619873E+06,      /* J =148 */
(PID.TID 0000.0001)                 3.268485361541970E+06,      /* J =149 */
(PID.TID 0000.0001)                 3.270069734686131E+06,      /* J =150 */
(PID.TID 0000.0001)                 3.271654047032697E+06,      /* J =151 */
(PID.TID 0000.0001)                 3.273238298552185E+06,      /* J =152 */
(PID.TID 0000.0001)                 3.274822489224938E+06,      /* J =153 */
(PID.TID 0000.0001)      . . .
(PID.TID 0000.0001)                 3.346047604486870E+06,      /* J =198 */
(PID.TID 0000.0001)                 3.347628963894507E+06,      /* J =199 */
(PID.TID 0000.0001)                 3.349210261059796E+06       /* J =200 */
(PID.TID 0000.0001)     ;
(PID.TID 0000.0001) globalArea = /* Integrated horizontal Area (m^2) */
(PID.TID 0000.0001)                 1.896206941558748E+09
(PID.TID 0000.0001)     ;
(PID.TID 0000.0001) // =======================================================
(PID.TID 0000.0001) // End of Model config. summary
(PID.TID 0000.0001) // =======================================================
(PID.TID 0000.0001) 
(PID.TID 0000.0001) == Packages configuration : Check & print summary ==
(PID.TID 0000.0001) 
(PID.TID 0000.0001) OBCS_CHECK: #define ALLOW_OBCS
(PID.TID 0000.0001) OBCS_CHECK: start summary:
(PID.TID 0000.0001) useOBCSprescribe = /* prescribe OB values */
(PID.TID 0000.0001)                   T
(PID.TID 0000.0001)     ;
(PID.TID 0000.0001) useOBCSbalance = /* balance the flow through OB */
(PID.TID 0000.0001)                   T
(PID.TID 0000.0001)     ;
(PID.TID 0000.0001) OBCSbalanceSurf = /* include surf. flux in balance */
(PID.TID 0000.0001)                   F
(PID.TID 0000.0001)     ;
(PID.TID 0000.0001) OBCS_balanceFacN = /* Northern OB Factor for balancing OB flow [-] */
(PID.TID 0000.0001)                 1.000000000000000E+00
(PID.TID 0000.0001)     ;
(PID.TID 0000.0001) OBCS_balanceFacS = /* Southern OB Factor for balancing OB flow [-] */
(PID.TID 0000.0001)                 1.000000000000000E+00
(PID.TID 0000.0001)     ;
(PID.TID 0000.0001) OBCS_balanceFacE = /* Eastern  OB Factor for balancing OB flow [-] */
(PID.TID 0000.0001)                 1.000000000000000E+00
(PID.TID 0000.0001)     ;
(PID.TID 0000.0001) OBCS_balanceFacW = /* Western  OB Factor for balancing OB flow [-] */
(PID.TID 0000.0001)                 1.000000000000000E+00
(PID.TID 0000.0001)     ;
(PID.TID 0000.0001) OBCS_uvApplyFac = /* Factor to apply to U,V 2nd column/row */
(PID.TID 0000.0001)                 1.000000000000000E+00
(PID.TID 0000.0001)     ;
(PID.TID 0000.0001) OBCS_u1_adv_T = /* Temp uses upwind adv-scheme @ OB */
(PID.TID 0000.0001)                       0
(PID.TID 0000.0001)     ;
(PID.TID 0000.0001) OBCS_u1_adv_S = /* Salt uses upwind adv-scheme @ OB */
(PID.TID 0000.0001)                       0
(PID.TID 0000.0001)     ;
(PID.TID 0000.0001) OBCS_monitorFreq = /* monitor output frequency [s] */
(PID.TID 0000.0001)                 1.000000000000000E+00
(PID.TID 0000.0001)     ;
(PID.TID 0000.0001) OBCS_monSelect = /* select group of variables to monitor */
(PID.TID 0000.0001)                       0
(PID.TID 0000.0001)     ;
(PID.TID 0000.0001) useOBCStides = /* apply tidal forcing through OB */
(PID.TID 0000.0001)                   F
(PID.TID 0000.0001)     ;
(PID.TID 0000.0001) tidalPeriod = /* (s) */
(PID.TID 0000.0001)    10 @  0.000000000000000E+00              /* I =  1: 10 */
(PID.TID 0000.0001)     ;
(PID.TID 0000.0001) OB_indexNone = /* null value for OB index (i.e. no OB) */
(PID.TID 0000.0001)                     -99
(PID.TID 0000.0001)     ;
(PID.TID 0000.0001) ======== Tile bi=   1 , bj=   1 ========
(PID.TID 0000.0001)  OB_Jn = /* Northern OB local indices */
(PID.TID 0000.0001)     9 @      200                            /* I = -2:  6 */
(PID.TID 0000.0001)  OB_Js = /* Southern OB local indices */
(PID.TID 0000.0001)     9 @      -99                            /* I = -2:  6 */
(PID.TID 0000.0001)  OB_Ie = /* Eastern OB local indices */
(PID.TID 0000.0001)   206 @      -99                            /* J = -2:203 */
(PID.TID 0000.0001)  OB_Iw = /* Western OB local indices */
(PID.TID 0000.0001)   206 @      -99                            /* J = -2:203 */
(PID.TID 0000.0001) OBCS_CHECK: end summary.
(PID.TID 0000.0001) OBCS_CHECK: #define ALLOW_ORLANSKI
(PID.TID 0000.0001) OBCS_CHECK: set-up OK
(PID.TID 0000.0001) OBCS_CHECK: check Inside Mask and OB locations: OK
(PID.TID 0000.0001) SHELFICE_CHECK: #define ALLOW_SHELFICE
(PID.TID 0000.0001) 
(PID.TID 0000.0001) SHELFICE_CHECK: start of SHELFICE config. summary
(PID.TID 0000.0001) SHELFICEisOn = /* package is turned on */
(PID.TID 0000.0001)                   T
(PID.TID 0000.0001)     ;
(PID.TID 0000.0001) useISOMIPTD = /* use simple isomip thermodynamics */
(PID.TID 0000.0001)                   F
(PID.TID 0000.0001)     ;
(PID.TID 0000.0001) SHELFICEconserve = /* use a conservative form of boundary conditions */
(PID.TID 0000.0001)                   T
(PID.TID 0000.0001)     ;
(PID.TID 0000.0001) SHELFICEboundaryLayer = /* use simple boundary layer scheme to suppress noise */
(PID.TID 0000.0001)                   T
(PID.TID 0000.0001)     ;
(PID.TID 0000.0001) SHI_withBL_realFWflux = /* use real FW Flux in boundary layer scheme */
(PID.TID 0000.0001)                   T
(PID.TID 0000.0001)     ;
(PID.TID 0000.0001) SHELFICEadvDiffHeatFlux = /* use adv.-diff. instead of just diff. heat flux into the ice shelf */
(PID.TID 0000.0001)                   F
(PID.TID 0000.0001)     ;
(PID.TID 0000.0001) SHELFICEMassStepping = /* step forward ice shelf mass/thickness */
(PID.TID 0000.0001)                   T
(PID.TID 0000.0001)     ;
(PID.TID 0000.0001) no_slip_shelfice = /* use no slip boundary conditions */
(PID.TID 0000.0001)                   F
(PID.TID 0000.0001)     ;
(PID.TID 0000.0001) SHELFICEdragLinear    = /* linear drag coefficient */
(PID.TID 0000.0001)                 0.000000000000000E+00
(PID.TID 0000.0001)     ;
(PID.TID 0000.0001) SHELFICEdragQuadratic = /* quadratic drag coefficient */
(PID.TID 0000.0001)                 7.500000000000000E-03
(PID.TID 0000.0001)     ;
(PID.TID 0000.0001) SHELFICEselectDragQuadr = /* select quadratic drag option */
(PID.TID 0000.0001)                       0
(PID.TID 0000.0001)     ;
(PID.TID 0000.0001) SHELFICElatentHeat      = /* latent heat of ice */
(PID.TID 0000.0001)                 3.340000000000000E+05
(PID.TID 0000.0001)     ;
(PID.TID 0000.0001) SHELFICEheatCapacity_Cp = /* heat capacity of ice shelf */
(PID.TID 0000.0001)                 2.000000000000000E+03
(PID.TID 0000.0001)     ;
(PID.TID 0000.0001) rhoShelfice   = /* density of ice shelf */
(PID.TID 0000.0001)                 9.170000000000000E+02
(PID.TID 0000.0001)     ;
(PID.TID 0000.0001) SHELFICEkappa = /* thermal conductivity of ice shelf */
(PID.TID 0000.0001)                 1.540000000000000E-06
(PID.TID 0000.0001)     ;
(PID.TID 0000.0001) SHELFICEthetaSurface = /* surface temperature above i.s. */
(PID.TID 0000.0001)                -2.000000000000000E+01
(PID.TID 0000.0001)     ;
(PID.TID 0000.0001) SHELFICEheatTransCoeff = /* heat transfer coefficient */
(PID.TID 0000.0001)                 1.000000000000000E-04
(PID.TID 0000.0001)     ;
(PID.TID 0000.0001) SHELFICEsaltTransCoeff = /* salt transfer coefficient */
(PID.TID 0000.0001)                 5.050000000000000E-07
(PID.TID 0000.0001)     ;
(PID.TID 0000.0001) SHELFICEuseGammaFrict = /* use velocity dependent exchange coefficients */
(PID.TID 0000.0001)                   T
(PID.TID 0000.0001)     ;
(PID.TID 0000.0001) SHI_withBL_uStarTopDz = /* compute uStar from top Dz averaged uVel,vVel */
(PID.TID 0000.0001)                   T
(PID.TID 0000.0001)     ;
(PID.TID 0000.0001) shiCdrag   = /* quadr. drag coefficient for uStar */
(PID.TID 0000.0001)                 7.500000000000000E-03
(PID.TID 0000.0001)     ;
(PID.TID 0000.0001) shiZetaN   = /* parameter for gammaTurb */
(PID.TID 0000.0001)                 5.200000000000000E-02
(PID.TID 0000.0001)     ;
(PID.TID 0000.0001) shiRc      = /* parameter for gammaTurb (not used) */
(PID.TID 0000.0001)                 2.000000000000000E-01
(PID.TID 0000.0001)     ;
(PID.TID 0000.0001) shiPrandtl = /* const. Prandtl No. for gammaTurb */
(PID.TID 0000.0001)                 1.380000000000000E+01
(PID.TID 0000.0001)     ;
(PID.TID 0000.0001) shiSchmidt = /* const. Schmidt No. for gammaTurb */
(PID.TID 0000.0001)                 2.432000000000000E+03
(PID.TID 0000.0001)     ;
(PID.TID 0000.0001) shiKinVisc = /* const. kin. viscosity for gammaTurb */
(PID.TID 0000.0001)                 1.950000000000000E-06
(PID.TID 0000.0001)     ;
(PID.TID 0000.0001) SHELFICEremeshFrequency = /* Frequency (in s) of Remeshing */
(PID.TID 0000.0001)                 3.000000000000000E+03
(PID.TID 0000.0001)     ;
(PID.TID 0000.0001) SHELFICEsplitThreshold = /* hFac remesh threshold above which cell splits */
(PID.TID 0000.0001)                 1.250000000000000E+00
(PID.TID 0000.0001)     ;
(PID.TID 0000.0001) SHELFICEmergeThreshold = /* hFac remesh threshold below which cell merges */
(PID.TID 0000.0001)                 2.400000000000000E-01
(PID.TID 0000.0001)     ;
(PID.TID 0000.0001) SHELFICEloadAnomalyFile = /* file name of loaded loadAnomaly field */
(PID.TID 0000.0001)               ''
(PID.TID 0000.0001)     ;
(PID.TID 0000.0001) SHELFICEmassFile = /* file name of loaded mass field */
(PID.TID 0000.0001)               'shelficemassinit.bin'
(PID.TID 0000.0001)     ;
(PID.TID 0000.0001) SHELFICEtopoFile = /* file name of loaded under-ice topography */
(PID.TID 0000.0001)               'shelftopo.round.bin'
(PID.TID 0000.0001)     ;
(PID.TID 0000.0001) SHELFICEMassDynTendFile = /* file name of loaded dynamic mass tendency field */
(PID.TID 0000.0001)               ''
(PID.TID 0000.0001)     ;
(PID.TID 0000.0001) SHELFICEwriteState  = /* do simple standard output */
(PID.TID 0000.0001)                   T
(PID.TID 0000.0001)     ;
(PID.TID 0000.0001) SHELFICE_dump_mdsio = /* use mdsio for snapshots */
(PID.TID 0000.0001)                   T
(PID.TID 0000.0001)     ;
(PID.TID 0000.0001) SHELFICE_tave_mdsio = /* use mdsio for time averages */
(PID.TID 0000.0001)                   T
(PID.TID 0000.0001)     ;
(PID.TID 0000.0001) SHELFICE_dump_mnc   = /* use netcdf for snapshots */
(PID.TID 0000.0001)                   F
(PID.TID 0000.0001)     ;
(PID.TID 0000.0001) SHELFICE_tave_mnc   = /* use netcdf for time averages */
(PID.TID 0000.0001)                   F
(PID.TID 0000.0001)     ;
(PID.TID 0000.0001) SHELFICE_dumpFreq = /* analoguous to dumpFreq */
(PID.TID 0000.0001)                 3.000000000000000E+03
(PID.TID 0000.0001)     ;
(PID.TID 0000.0001) SHELFICE_taveFreq = /* analoguous to taveFreq */
(PID.TID 0000.0001)                 0.000000000000000E+00
(PID.TID 0000.0001)     ;
(PID.TID 0000.0001) SHELFICE_CHECK: end of SHELFICE config. summary
(PID.TID 0000.0001) STREAMICE_CHECK: #define STREAMICE
(PID.TID 0000.0001)  max cg interations = /* user defined parameter */
(PID.TID 0000.0001)                     700
(PID.TID 0000.0001)     ;
(PID.TID 0000.0001)  max nonlin interations = /* user defined parameter */
(PID.TID 0000.0001)                      70
(PID.TID 0000.0001)     ;
(PID.TID 0000.0001)  # of timesteps per velocity solve  = /* user defined parameter */
(PID.TID 0000.0001)                     144
(PID.TID 0000.0001)     ;
(PID.TID 0000.0001)  streamice_density = /* user defined parameter */
(PID.TID 0000.0001)                 9.170000000000000E+02
(PID.TID 0000.0001)     ;
(PID.TID 0000.0001)  streamice_density_ocean_avg = /* user defined parameter */
(PID.TID 0000.0001)                 1.028000000000000E+03
(PID.TID 0000.0001)     ;
(PID.TID 0000.0001)  glens law stifness = /* user defined parameter */
(PID.TID 0000.0001)                 7.000000000000000E+02
(PID.TID 0000.0001)     ;
(PID.TID 0000.0001)  glens law exponent = /* user defined parameter */
(PID.TID 0000.0001)                 3.000000000000000E+00
(PID.TID 0000.0001)     ;
(PID.TID 0000.0001)  basal trac coeff = /* user defined parameter */
(PID.TID 0000.0001)                 5.000000000000000E+00
(PID.TID 0000.0001)     ;
(PID.TID 0000.0001)  basal exponent = /* user defined parameter */
(PID.TID 0000.0001)                 1.000000000000000E+00
(PID.TID 0000.0001)     ;
(PID.TID 0000.0001)  uniform input flux (m^2/a) = /* user defined parameter */
(PID.TID 0000.0001)                 0.000000000000000E+00
(PID.TID 0000.0001)     ;
(PID.TID 0000.0001)  time for ice vel update (sec) = /* user defined parameter */
(PID.TID 0000.0001)                 4.320000000000000E+04
(PID.TID 0000.0001)     ;
(PID.TID 0000.0001)  conj grad tolerance = /* user defined parameter */
(PID.TID 0000.0001)                 1.000000000000000E-06
(PID.TID 0000.0001)     ;
(PID.TID 0000.0001)  ice velocity nonlinear iter tol = /* user defined parameter */
(PID.TID 0000.0001)                 1.000000000000000E-06
(PID.TID 0000.0001)     ;
(PID.TID 0000.0001)  max shelf draft for analytic init (m) = /* user defined parameter */
(PID.TID 0000.0001)                 0.000000000000000E+00
(PID.TID 0000.0001)     ;
(PID.TID 0000.0001)  min shelf draft for analytic init (m) = /* user defined parameter */
(PID.TID 0000.0001)                 0.000000000000000E+00
(PID.TID 0000.0001)     ;
(PID.TID 0000.0001)  shelf extent for analytic init (km) = /* user defined parameter */
(PID.TID 0000.0001)                 0.000000000000000E+00
(PID.TID 0000.0001)     ;
(PID.TID 0000.0001)  slope scale for analytic init (km) = /* user defined parameter */
(PID.TID 0000.0001)                 0.000000000000000E+00
(PID.TID 0000.0001)     ;
(PID.TID 0000.0001)  flat shelf width for analytic init (km) = /* user defined parameter */
(PID.TID 0000.0001)                 0.000000000000000E+00
(PID.TID 0000.0001)     ;
(PID.TID 0000.0001)  flow direction for analytic init = /* user defined parameter */
(PID.TID 0000.0001)                 0.000000000000000E+00
(PID.TID 0000.0001)     ;
(PID.TID 0000.0001)  min range on no bd for no-slip (km) = /* user defined parameter */
(PID.TID 0000.0001)                -2.000000000000000E+02
(PID.TID 0000.0001)     ;
(PID.TID 0000.0001)  max range on no bd for no-slip (km) = /* user defined parameter */
(PID.TID 0000.0001)                 0.000000000000000E+00
(PID.TID 0000.0001)     ;
(PID.TID 0000.0001)  min range on so bd for no-slip (km) = /* user defined parameter */
(PID.TID 0000.0001)                -2.000000000000000E+02
(PID.TID 0000.0001)     ;
(PID.TID 0000.0001)  max range on so bd for no-slip (km) = /* user defined parameter */
(PID.TID 0000.0001)                 0.000000000000000E+00
(PID.TID 0000.0001)     ;
(PID.TID 0000.0001)  min range on east bd for no-slip (km) = /* user defined parameter */
(PID.TID 0000.0001)                -1.800000000000000E+02
(PID.TID 0000.0001)     ;
(PID.TID 0000.0001)  max range on east bd for no-slip (km) = /* user defined parameter */
(PID.TID 0000.0001)                 0.000000000000000E+00
(PID.TID 0000.0001)     ;
(PID.TID 0000.0001)  min range on west bd for no-slip (km) = /* user defined parameter */
(PID.TID 0000.0001)                 0.000000000000000E+00
(PID.TID 0000.0001)     ;
(PID.TID 0000.0001)  max range on west bd for no-slip (km) = /* user defined parameter */
(PID.TID 0000.0001)                 0.000000000000000E+00
(PID.TID 0000.0001)     ;
(PID.TID 0000.0001)  min range on no bd for no-stress (km) = /* user defined parameter */
(PID.TID 0000.0001)                 0.000000000000000E+00
(PID.TID 0000.0001)     ;
(PID.TID 0000.0001)  max range on no bd for no-stress (km) = /* user defined parameter */
(PID.TID 0000.0001)                 0.000000000000000E+00
(PID.TID 0000.0001)     ;
(PID.TID 0000.0001)  min range on so bd for no-stress (km) = /* user defined parameter */
(PID.TID 0000.0001)                 0.000000000000000E+00
(PID.TID 0000.0001)     ;
(PID.TID 0000.0001)  max range on so bd for no-stress (km) = /* user defined parameter */
(PID.TID 0000.0001)                 0.000000000000000E+00
(PID.TID 0000.0001)     ;
(PID.TID 0000.0001)  min range on east bd for no-stress (km) = /* user defined parameter */
(PID.TID 0000.0001)                -1.000000000000000E+00
(PID.TID 0000.0001)     ;
(PID.TID 0000.0001)  max range on east bd for no-stress (km) = /* user defined parameter */
(PID.TID 0000.0001)                -1.000000000000000E+00
(PID.TID 0000.0001)     ;
(PID.TID 0000.0001)  min range on west bd for no-stress (km) = /* user defined parameter */
(PID.TID 0000.0001)                -1.000000000000000E+00
(PID.TID 0000.0001)     ;
(PID.TID 0000.0001)  max range on west bd for no-stress (km) = /* user defined parameter */
(PID.TID 0000.0001)                -1.000000000000000E+00
(PID.TID 0000.0001)     ;
(PID.TID 0000.0001)  min range on no bd for FluxBdry (km) = /* user defined parameter */
(PID.TID 0000.0001)                -1.000000000000000E+00
(PID.TID 0000.0001)     ;
(PID.TID 0000.0001)  max range on no bd for FluxBdry (km) = /* user defined parameter */
(PID.TID 0000.0001)                -1.000000000000000E+00
(PID.TID 0000.0001)     ;
(PID.TID 0000.0001)  min range on so bd for FluxBdry (km) = /* user defined parameter */
(PID.TID 0000.0001)                -1.000000000000000E+00
(PID.TID 0000.0001)     ;
(PID.TID 0000.0001)  max range on so bd for FluxBdry (km) = /* user defined parameter */
(PID.TID 0000.0001)                -1.000000000000000E+00
(PID.TID 0000.0001)     ;
(PID.TID 0000.0001)  min range on east bd for FluxBdry (km) = /* user defined parameter */
(PID.TID 0000.0001)                -1.800000000000000E+02
(PID.TID 0000.0001)     ;
(PID.TID 0000.0001)  max range on east bd for FluxBdry (km) = /* user defined parameter */
(PID.TID 0000.0001)                 0.000000000000000E+00
(PID.TID 0000.0001)     ;
(PID.TID 0000.0001)  min range on west bd for FluxBdry (km) = /* user defined parameter */
(PID.TID 0000.0001)                 0.000000000000000E+00
(PID.TID 0000.0001)     ;
(PID.TID 0000.0001)  max range on west bd for FluxBdry (km) = /* user defined parameter */
(PID.TID 0000.0001)                 0.000000000000000E+00
(PID.TID 0000.0001)     ;
(PID.TID 0000.0001)  min range on no bd for Dirich (km) = /* user defined parameter */
(PID.TID 0000.0001)                -1.000000000000000E+00
(PID.TID 0000.0001)     ;
(PID.TID 0000.0001)  max range on no bd for Dirich (km) = /* user defined parameter */
(PID.TID 0000.0001)                -1.000000000000000E+00
(PID.TID 0000.0001)     ;
(PID.TID 0000.0001)  min range on so bd for Dirich (km) = /* user defined parameter */
(PID.TID 0000.0001)                -1.000000000000000E+00
(PID.TID 0000.0001)     ;
(PID.TID 0000.0001)  max range on so bd for Dirich (km) = /* user defined parameter */
(PID.TID 0000.0001)                -1.000000000000000E+00
(PID.TID 0000.0001)     ;
(PID.TID 0000.0001)  min range on east bd for Dirich (km) = /* user defined parameter */
(PID.TID 0000.0001)                -1.000000000000000E+00
(PID.TID 0000.0001)     ;
(PID.TID 0000.0001)  max range on east bd for Dirich (km) = /* user defined parameter */
(PID.TID 0000.0001)                -1.000000000000000E+00
(PID.TID 0000.0001)     ;
(PID.TID 0000.0001)  min range on west bd for Dirich (km) = /* user defined parameter */
(PID.TID 0000.0001)                -1.000000000000000E+00
(PID.TID 0000.0001)     ;
(PID.TID 0000.0001)  max range on west bd for Dirich (km) = /* user defined parameter */
(PID.TID 0000.0001)                -1.000000000000000E+00
(PID.TID 0000.0001)     ;
(PID.TID 0000.0001)  min range on no bd for CFBC (km) = /* user defined parameter */
(PID.TID 0000.0001)                -1.000000000000000E+00
(PID.TID 0000.0001)     ;
(PID.TID 0000.0001)  max range on no bd for CFBC (km) = /* user defined parameter */
(PID.TID 0000.0001)                -1.000000000000000E+00
(PID.TID 0000.0001)     ;
(PID.TID 0000.0001)  min range on so bd for CFBC (km) = /* user defined parameter */
(PID.TID 0000.0001)                -1.000000000000000E+00
(PID.TID 0000.0001)     ;
(PID.TID 0000.0001)  max range on so bd for CFBC (km) = /* user defined parameter */
(PID.TID 0000.0001)                -1.000000000000000E+00
(PID.TID 0000.0001)     ;
(PID.TID 0000.0001)  min range on east bd for CFBC (km) = /* user defined parameter */
(PID.TID 0000.0001)                 0.000000000000000E+00
(PID.TID 0000.0001)     ;
(PID.TID 0000.0001)  max range on east bd for CFBC (km) = /* user defined parameter */
(PID.TID 0000.0001)                 0.000000000000000E+00
(PID.TID 0000.0001)     ;
(PID.TID 0000.0001)  min range on west bd for CFBC (km) = /* user defined parameter */
(PID.TID 0000.0001)                -1.800000000000000E+02
(PID.TID 0000.0001)     ;
(PID.TID 0000.0001)  max range on west bd for CFBC (km) = /* user defined parameter */
(PID.TID 0000.0001)                 0.000000000000000E+00
(PID.TID 0000.0001)     ;
(PID.TID 0000.0001)  val (m^2/a) for north flux bdry = /* user defined parameter */
(PID.TID 0000.0001)                 0.000000000000000E+00
(PID.TID 0000.0001)     ;
(PID.TID 0000.0001)  val (m^2/a) for south flux bdry = /* user defined parameter */
(PID.TID 0000.0001)                 0.000000000000000E+00
(PID.TID 0000.0001)     ;
(PID.TID 0000.0001)  val (m^2/a) for east flux bdry = /* user defined parameter */
(PID.TID 0000.0001)                 1.500000000000000E+06
(PID.TID 0000.0001)     ;
(PID.TID 0000.0001)  val (m^2/a) for west flux bdry = /* user defined parameter */
(PID.TID 0000.0001)                 0.000000000000000E+00
(PID.TID 0000.0001)     ;
(PID.TID 0000.0001)  streamice_dump_mdsio = /* user defined parameter */
(PID.TID 0000.0001)                   T
(PID.TID 0000.0001)     ;
(PID.TID 0000.0001)  streamice_dump_mdsio = /* user defined parameter */
(PID.TID 0000.0001)                   T
(PID.TID 0000.0001)     ;
(PID.TID 0000.0001)  streamice_dump_mnc = /* user defined parameter */
(PID.TID 0000.0001)                   F
(PID.TID 0000.0001)     ;
(PID.TID 0000.0001)  streamice_tave_mnc = /* user defined parameter */
(PID.TID 0000.0001)                   F
(PID.TID 0000.0001)     ;
(PID.TID 0000.0001)  streamice_move_front = /* user defined parameter */
(PID.TID 0000.0001)                   F
(PID.TID 0000.0001)     ;
(PID.TID 0000.0001)  streamice_calve_to_mask = /* user defined parameter */
(PID.TID 0000.0001)                   F
(PID.TID 0000.0001)     ;
(PID.TID 0000.0001) STREAMICEthickInit = /* user defined parameter */
(PID.TID 0000.0001)               'FILE'
(PID.TID 0000.0001)     ;
(PID.TID 0000.0001) STREAMICEthickFile = /* user defined parameter */
(PID.TID 0000.0001)               'h0.bin'
(PID.TID 0000.0001)     ;
(PID.TID 0000.0001) STREAMICEcalveMaskFile = /* user defined parameter */
(PID.TID 0000.0001)               ''
(PID.TID 0000.0001)     ;
(PID.TID 0000.0001) GAD_CHECK: #define ALLOW_GENERIC_ADVDIFF
(PID.TID 0000.0001) // =======================================================
(PID.TID 0000.0001) // Check Model config. (CONFIG_CHECK):
(PID.TID 0000.0001) // CONFIG_CHECK : Normal End
(PID.TID 0000.0001) // =======================================================
(PID.TID 0000.0001) 
(PID.TID 0000.0001)  MDS_READ_META: opening file: pickup.0000011395.meta
(PID.TID 0000.0001)  nRecords = 543 ; filePrec =  64 ; fileIter =     11395
(PID.TID 0000.0001)     nDims =   2 , dims:
(PID.TID 0000.0001)    1:   3   1   3
(PID.TID 0000.0001)    2: 200   1 200
(PID.TID 0000.0001)     nFlds =   9 , nFl3D =   6 , fields:
(PID.TID 0000.0001)  >Uvel    < >Vvel    < >Theta   < >Salt    < >GuNm1   < >GvNm1   < >EtaN    < >dEtaHdt < >EtaH    <
(PID.TID 0000.0001) missingVal=  1.00000000000000E+00 ; nTimRec =   1 , timeList:
(PID.TID 0000.0001)   3.418500000000E+06
(PID.TID 0000.0001) READ_MFLDS_3D_RL: read field: "Uvel    ", #   1 in fldList, rec=   1
(PID.TID 0000.0001)  MDS_READ_FIELD: opening global file: pickup.0000011395.data
(PID.TID 0000.0001) READ_MFLDS_3D_RL: read field: "Vvel    ", #   2 in fldList, rec=   2
(PID.TID 0000.0001)  MDS_READ_FIELD: opening global file: pickup.0000011395.data
(PID.TID 0000.0001) READ_MFLDS_3D_RL: read field: "Theta   ", #   3 in fldList, rec=   3
(PID.TID 0000.0001)  MDS_READ_FIELD: opening global file: pickup.0000011395.data
(PID.TID 0000.0001) READ_MFLDS_3D_RL: read field: "Salt    ", #   4 in fldList, rec=   4
(PID.TID 0000.0001)  MDS_READ_FIELD: opening global file: pickup.0000011395.data
(PID.TID 0000.0001) READ_MFLDS_3D_RL: read field: "GuNm1   ", #   5 in fldList, rec=   5
(PID.TID 0000.0001)  MDS_READ_FIELD: opening global file: pickup.0000011395.data
(PID.TID 0000.0001) READ_MFLDS_3D_RL: read field: "GvNm1   ", #   6 in fldList, rec=   6
(PID.TID 0000.0001)  MDS_READ_FIELD: opening global file: pickup.0000011395.data
(PID.TID 0000.0001) READ_MFLDS_3D_RL: read field: "EtaN    ", #   7 in fldList, rec= 541
(PID.TID 0000.0001)  MDS_READ_FIELD: opening global file: pickup.0000011395.data
(PID.TID 0000.0001) READ_MFLDS_3D_RL: read field: "dEtaHdt ", #   8 in fldList, rec= 542
(PID.TID 0000.0001)  MDS_READ_FIELD: opening global file: pickup.0000011395.data
(PID.TID 0000.0001) READ_MFLDS_3D_RL: read field: "EtaH    ", #   9 in fldList, rec= 543
(PID.TID 0000.0001)  MDS_READ_FIELD: opening global file: pickup.0000011395.data
(PID.TID 0000.0001) READ_MFLDS_CHECK: - normal end ; reset MFLDS file-name: pickup.0000011395
(PID.TID 0000.0001)  write diagnostics summary to file ioUnit:      6
Iter.Nb:     11395 ; Time(s):  3.4185000000000E+06
------------------------------------------------------------------------
2D/3D diagnostics: Number of lists:     1
------------------------------------------------------------------------
listId=    1 ; file name: surfDiag
 nFlds, nActive,       freq     &     phase        , nLev               
   12  |   12  |       300.000000         0.000000 |   1
 levels:   1
 diag# | name   |   ipt  |  iMate | kLev|   count |   mate.C|           
   209 |SHIfwFlx|      1 |      0 |   1 |       0 |
   210 |SHIhtFlx|      2 |      0 |   1 |       0 |
   215 |SHIgammT|      3 |      0 |   1 |       0 |
   216 |SHIgammS|      4 |      0 |   1 |       0 |
   218 |SHI_mass|      5 |      0 |   1 |       0 |
   219 |SHIRshel|      6 |      0 |   1 |       0 |
   194 |SI_Uvel |      7 |      0 |   1 |       0 |
   195 |SI_Vvel |      8 |      0 |   1 |       0 |
   196 |SI_Thick|      9 |      0 |   1 |       0 |
   199 |SI_hmask|     10 |      0 |   1 |       0 |
   198 |SI_float|     11 |      0 |   1 |       0 |
   217 |SHIuStar|     12 |      0 |   1 |       0 |
------------------------------------------------------------------------
Global & Regional Statistics diagnostics: Number of lists:     0
------------------------------------------------------------------------
(PID.TID 0000.0001)  MDS_READ_FIELD: opening global file: bathy.box
(PID.TID 0000.0001)  MDS_READ_FIELD: opening global file: h0.bin
(PID.TID 0000.0001)  MDS_READ_FIELD: opening global file: hmask3.box
(PID.TID 0000.0001)  MDS_READ_META: opening file: pickup_streamice.0000011395.meta
(PID.TID 0000.0001)  nRecords =  99 ; filePrec =  64 ; fileIter =     11395
(PID.TID 0000.0001)     nDims =   2 , dims:
(PID.TID 0000.0001)    1:   3   1   3
(PID.TID 0000.0001)    2: 200   1 200
(PID.TID 0000.0001)     nFlds =  10 , nFl3D =   1 , fields:
(PID.TID 0000.0001)  >visc3d  < >SI_area < >SI_hmask< >SI_uvel < >SI_vvel < >SI_thick< >SI_betaF< >SI_visc < >SI_taubx< >SI_tauby<
(PID.TID 0000.0001) missingVal=  1.00000000000000E+00 ; nTimRec =   1 , timeList:
(PID.TID 0000.0001)   3.418500000000E+06
(PID.TID 0000.0001) READ_MFLDS_3D_RL: read field: "visc3d  ", #   1 in fldList, rec=   1
(PID.TID 0000.0001)  MDS_READ_FIELD: opening global file: pickup_streamice.0000011395.data
(PID.TID 0000.0001) READ_MFLDS_3D_RL: read field: "SI_area ", #   2 in fldList, rec=  91
(PID.TID 0000.0001)  MDS_READ_FIELD: opening global file: pickup_streamice.0000011395.data
(PID.TID 0000.0001) READ_MFLDS_LEV_RS: read field: "SI_hmask", #   3 in fldList, rec=  92
(PID.TID 0000.0001)  MDS_READ_FIELD: opening global file: pickup_streamice.0000011395.data
(PID.TID 0000.0001) READ_MFLDS_3D_RL: read field: "SI_uvel ", #   4 in fldList, rec=  93
(PID.TID 0000.0001)  MDS_READ_FIELD: opening global file: pickup_streamice.0000011395.data
(PID.TID 0000.0001) READ_MFLDS_3D_RL: read field: "SI_vvel ", #   5 in fldList, rec=  94
(PID.TID 0000.0001)  MDS_READ_FIELD: opening global file: pickup_streamice.0000011395.data
(PID.TID 0000.0001) READ_MFLDS_3D_RL: read field: "SI_thick", #   6 in fldList, rec=  95
(PID.TID 0000.0001)  MDS_READ_FIELD: opening global file: pickup_streamice.0000011395.data
(PID.TID 0000.0001) READ_MFLDS_3D_RL: read field: "SI_betaF", #   7 in fldList, rec=  96
(PID.TID 0000.0001)  MDS_READ_FIELD: opening global file: pickup_streamice.0000011395.data
(PID.TID 0000.0001) READ_MFLDS_3D_RL: read field: "SI_visc ", #   8 in fldList, rec=  97
(PID.TID 0000.0001)  MDS_READ_FIELD: opening global file: pickup_streamice.0000011395.data
(PID.TID 0000.0001) READ_MFLDS_3D_RL: read field: "SI_taubx", #   9 in fldList, rec=  98
(PID.TID 0000.0001)  MDS_READ_FIELD: opening global file: pickup_streamice.0000011395.data
(PID.TID 0000.0001) READ_MFLDS_3D_RL: read field: "SI_tauby", #  10 in fldList, rec=  99
(PID.TID 0000.0001)  MDS_READ_FIELD: opening global file: pickup_streamice.0000011395.data
(PID.TID 0000.0001) READ_MFLDS_CHECK: - normal end ; reset MFLDS file-name: pickup_streamice.0000011395
(PID.TID 0000.0001)  MDS_READ_META: opening file: pickup_shelfice.0000011395.meta
(PID.TID 0000.0001)  nRecords =   2 ; filePrec =  64 ; fileIter =     11395
(PID.TID 0000.0001)     nDims =   2 , dims:
(PID.TID 0000.0001)    1:   3   1   3
(PID.TID 0000.0001)    2: 200   1 200
(PID.TID 0000.0001)     nFlds =   2 , nFl3D =   0 , fields:
(PID.TID 0000.0001)  >SHI_mass< >R_Shelfi<
(PID.TID 0000.0001) missingVal=  1.00000000000000E+00 ; nTimRec =   1 , timeList:
(PID.TID 0000.0001)   3.418500000000E+06
(PID.TID 0000.0001) READ_MFLDS_3D_RL: read field: "SHI_mass", #   1 in fldList, rec=   1
(PID.TID 0000.0001)  MDS_READ_FIELD: opening global file: pickup_shelfice.0000011395.data
(PID.TID 0000.0001) READ_MFLDS_CHECK: - normal end ; reset MFLDS file-name: pickup_shelfice.0000011395
(PID.TID 0000.0001)  OBCS_FIELDS_LOAD: Reading initial data:     11395  3.418500000000E+06
(PID.TID 0000.0001)  MDS_READ_SEC_XZ: opening global file: vvel.obw
(PID.TID 0000.0001)  MDS_READ_SEC_XZ: opening global file: theta.obw
(PID.TID 0000.0001)  MDS_READ_SEC_XZ: opening global file: salt.obw
(PID.TID 0000.0001) // =======================================================
(PID.TID 0000.0001) // Model current state
(PID.TID 0000.0001) // =======================================================
(PID.TID 0000.0001) 
(PID.TID 0000.0001) // =======================================================
(PID.TID 0000.0001) // Begin MONITOR dynamic field statistics
(PID.TID 0000.0001) // =======================================================
(PID.TID 0000.0001) %MON time_tsnumber                =                 11395
(PID.TID 0000.0001) %MON time_secondsf                =   3.4185000000000E+06
(PID.TID 0000.0001) %MON dynstat_eta_max              =   2.4999963769890E+00
(PID.TID 0000.0001) %MON dynstat_eta_min              =  -7.4559274521965E+00
(PID.TID 0000.0001) %MON dynstat_eta_mean             =  -1.2866326834960E+00
(PID.TID 0000.0001) %MON dynstat_eta_sd               =   2.4094601033586E+00
(PID.TID 0000.0001) %MON dynstat_eta_del2             =   1.8293494433536E-01
(PID.TID 0000.0001) %MON dynstat_uvel_max             =   5.6679065996592E-12
(PID.TID 0000.0001) %MON dynstat_uvel_min             =  -5.7013937370441E-12
(PID.TID 0000.0001) %MON dynstat_uvel_mean            =  -8.7760202178692E-26
(PID.TID 0000.0001) %MON dynstat_uvel_sd              =   9.1995768923982E-13
(PID.TID 0000.0001) %MON dynstat_uvel_del2            =   2.2438431953217E-14
(PID.TID 0000.0001) %MON dynstat_vvel_max             =   1.9868511475419E-01
(PID.TID 0000.0001) %MON dynstat_vvel_min             =  -1.1046057309893E-01
(PID.TID 0000.0001) %MON dynstat_vvel_mean            =   5.7104612449006E-07
(PID.TID 0000.0001) %MON dynstat_vvel_sd              =   5.1882364479194E-02
(PID.TID 0000.0001) %MON dynstat_vvel_del2            =   1.5358216232328E-05
(PID.TID 0000.0001) %MON dynstat_wvel_max             =   1.2388897115162E-02
(PID.TID 0000.0001) %MON dynstat_wvel_min             =  -7.7712523810149E-03
(PID.TID 0000.0001) %MON dynstat_wvel_mean            =   3.0022119538242E-05
(PID.TID 0000.0001) %MON dynstat_wvel_sd              =   6.8027407258778E-04
(PID.TID 0000.0001) %MON dynstat_wvel_del2            =   3.9278775556707E-06
(PID.TID 0000.0001) %MON dynstat_theta_max            =   1.9439517945228E+00
(PID.TID 0000.0001) %MON dynstat_theta_min            =  -1.8515728032292E+00
(PID.TID 0000.0001) %MON dynstat_theta_mean           =   2.2418370659901E-02
(PID.TID 0000.0001) %MON dynstat_theta_sd             =   1.2764707420041E+00
(PID.TID 0000.0001) %MON dynstat_theta_del2           =   5.7672222554711E-05
(PID.TID 0000.0001) %MON dynstat_salt_max             =   3.4692814332631E+01
(PID.TID 0000.0001) %MON dynstat_salt_min             =   3.3812115784173E+01
(PID.TID 0000.0001) %MON dynstat_salt_mean            =   3.4431621788538E+01
(PID.TID 0000.0001) %MON dynstat_salt_sd              =   1.8349309263810E-01
(PID.TID 0000.0001) %MON dynstat_salt_del2            =   1.5925619814638E-05
(PID.TID 0000.0001) %MON advcfl_uvel_max              =   4.5092449197060E-13
(PID.TID 0000.0001) %MON advcfl_vvel_max              =   6.8624588925515E-02
(PID.TID 0000.0001) %MON advcfl_wvel_max              =   3.7166691345486E-01
(PID.TID 0000.0001) %MON advcfl_W_hf_max              =   3.7166691345486E-01
(PID.TID 0000.0001) %MON pe_b_mean                    =   5.2673466335883E-02
(PID.TID 0000.0001) %MON ke_max                       =   1.9723738987803E-02
(PID.TID 0000.0001) %MON ke_mean                      =   1.3458557656010E-03
(PID.TID 0000.0001) %MON ke_vol                       =   1.3174232507485E+12
(PID.TID 0000.0001) // =======================================================
(PID.TID 0000.0001) // End MONITOR dynamic field statistics
(PID.TID 0000.0001) // =======================================================
(PID.TID 0000.0001) // =======================================================
(PID.TID 0000.0001) // Begin OBCS MONITOR field statistics
(PID.TID 0000.0001) // =======================================================
(PID.TID 0000.0001) %MON obc_N_vVel_max               =   2.5000000000000E-02
(PID.TID 0000.0001) %MON obc_N_vVel_min               =  -2.5000000000000E-02
(PID.TID 0000.0001) %MON obc_N_vVel_mean              =   1.0701309254946E-18
(PID.TID 0000.0001) %MON obc_N_vVel_sd                =   1.4595032760272E-02
(PID.TID 0000.0001) %MON obc_N_vVel_Int               =   1.1141310096718E-11
(PID.TID 0000.0001) // =======================================================
(PID.TID 0000.0001) // End OBCS MONITOR field statistics
(PID.TID 0000.0001) // =======================================================
(PID.TID 0000.0001) streamice solo_time_step: nIter0000011395 0.11E+00seconds
 time_step_loc    9.5129375951293768E-006
(PID.TID 0000.0001) END STREAMICE_ADVECT_THICKNESS
(PID.TID 0000.0001) SOLVE_FOR_PRESSURE: putPmEinXvector =    F
 cg2d: Sum(rhs),rhsMax =   1.18807323702558E-01  5.71294881489659E+01
(PID.TID 0000.0001)      cg2d_init_res =   6.75388268866800E-05
(PID.TID 0000.0001)      cg2d_iters(min,last) =      -1     115
(PID.TID 0000.0001)      cg2d_last_res =   5.46198339065729E-12
(PID.TID 0000.0001) CALLING FILL DIAGNOSTICS
(PID.TID 0000.0001) // =======================================================
(PID.TID 0000.0001) // Begin MONITOR dynamic field statistics
(PID.TID 0000.0001) // =======================================================
(PID.TID 0000.0001) %MON time_tsnumber                =                 11396
(PID.TID 0000.0001) %MON time_secondsf                =   3.4188000000000E+06
(PID.TID 0000.0001) %MON dynstat_eta_max              =   2.5001771693232E+00
(PID.TID 0000.0001) %MON dynstat_eta_min              =  -7.4557834034868E+00
(PID.TID 0000.0001) %MON dynstat_eta_mean             =  -1.2865494671107E+00
(PID.TID 0000.0001) %MON dynstat_eta_sd               =   2.4094108643736E+00
(PID.TID 0000.0001) %MON dynstat_eta_del2             =   1.8293495095301E-01
(PID.TID 0000.0001) %MON dynstat_uvel_max             =   7.1513398081464E-12
(PID.TID 0000.0001) %MON dynstat_uvel_min             =  -7.1746936213458E-12
(PID.TID 0000.0001) %MON dynstat_uvel_mean            =  -8.8239993164656E-26
(PID.TID 0000.0001) %MON dynstat_uvel_sd              =   9.4214656727034E-13
(PID.TID 0000.0001) %MON dynstat_uvel_del2            =   2.2979032421439E-14
(PID.TID 0000.0001) %MON dynstat_vvel_max             =   1.9868740511382E-01
(PID.TID 0000.0001) %MON dynstat_vvel_min             =  -1.1045815953922E-01
(PID.TID 0000.0001) %MON dynstat_vvel_mean            =   5.7104005360441E-07
(PID.TID 0000.0001) %MON dynstat_vvel_sd              =   5.1884482337380E-02
(PID.TID 0000.0001) %MON dynstat_vvel_del2            =   1.5358392443641E-05
(PID.TID 0000.0001) %MON dynstat_wvel_max             =   1.2388608748116E-02
(PID.TID 0000.0001) %MON dynstat_wvel_min             =  -7.7724937769512E-03
(PID.TID 0000.0001) %MON dynstat_wvel_mean            =   3.0022119551777E-05
(PID.TID 0000.0001) %MON dynstat_wvel_sd              =   6.8029501250870E-04
(PID.TID 0000.0001) %MON dynstat_wvel_del2            =   3.9281178150177E-06
(PID.TID 0000.0001) %MON dynstat_theta_max            =   1.9439525160585E+00
(PID.TID 0000.0001) %MON dynstat_theta_min            =  -1.8515653453669E+00
(PID.TID 0000.0001) %MON dynstat_theta_mean           =   2.2430033472691E-02
(PID.TID 0000.0001) %MON dynstat_theta_sd             =   1.2764676397098E+00
(PID.TID 0000.0001) %MON dynstat_theta_del2           =   5.7675219132959E-05
(PID.TID 0000.0001) %MON dynstat_salt_max             =   3.4692814425136E+01
(PID.TID 0000.0001) %MON dynstat_salt_min             =   3.3812115970492E+01
(PID.TID 0000.0001) %MON dynstat_salt_mean            =   3.4431622519005E+01
(PID.TID 0000.0001) %MON dynstat_salt_sd              =   1.8349369621358E-01
(PID.TID 0000.0001) %MON dynstat_salt_del2            =   1.5925634268323E-05
(PID.TID 0000.0001) %MON advcfl_uvel_max              =   5.6717552602289E-13
(PID.TID 0000.0001) %MON advcfl_vvel_max              =   6.8625380001322E-02
(PID.TID 0000.0001) %MON advcfl_wvel_max              =   3.7165826244347E-01
(PID.TID 0000.0001) %MON advcfl_W_hf_max              =   3.7165826244347E-01
(PID.TID 0000.0001) %MON pe_b_mean                    =  -2.7187431854199E-01
(PID.TID 0000.0001) %MON ke_max                       =   1.9724262651566E-02
(PID.TID 0000.0001) %MON ke_mean                      =   1.3459656744129E-03
(PID.TID 0000.0001) %MON ke_vol                       =   1.3174234085524E+12
(PID.TID 0000.0001) // =======================================================
(PID.TID 0000.0001) // End MONITOR dynamic field statistics
(PID.TID 0000.0001) // =======================================================
(PID.TID 0000.0001) // =======================================================
(PID.TID 0000.0001) // Begin OBCS MONITOR field statistics
(PID.TID 0000.0001) // =======================================================
(PID.TID 0000.0001) %MON obc_N_vVel_max               =   2.5000000000000E-02
(PID.TID 0000.0001) %MON obc_N_vVel_min               =  -2.5000000000000E-02
(PID.TID 0000.0001) %MON obc_N_vVel_mean              =   1.0701309254946E-18
(PID.TID 0000.0001) %MON obc_N_vVel_sd                =   1.4595032760272E-02
(PID.TID 0000.0001) %MON obc_N_vVel_Int               =   1.1141310096718E-11
(PID.TID 0000.0001) // =======================================================
(PID.TID 0000.0001) // End OBCS MONITOR field statistics
(PID.TID 0000.0001) // =======================================================
 Computing Diagnostic #    209  SHIfwFlx     Counter:       1   Parms: SM      L1      
 Computing Diagnostic #    210  SHIhtFlx     Counter:       1   Parms: SM      L1      
 Computing Diagnostic #    215  SHIgammT     Counter:       1   Parms: SM      L1      
 Computing Diagnostic #    216  SHIgammS     Counter:       1   Parms: SM      L1      
 Computing Diagnostic #    218  SHI_mass     Counter:       1   Parms: SM      L1      
 Computing Diagnostic #    219  SHIRshel     Counter:       1   Parms: SM      L1      
 Computing Diagnostic #    194  SI_Uvel      Counter:       1   Parms: UZ      L1      
 Computing Diagnostic #    195  SI_Vvel      Counter:       1   Parms: VZ      L1      
 Computing Diagnostic #    196  SI_Thick     Counter:       1   Parms: SM      L1      
 Computing Diagnostic #    199  SI_hmask     Counter:       1   Parms: SM      L1      
 Computing Diagnostic #    198  SI_float     Counter:       1   Parms: SM      L1      
 Computing Diagnostic #    217  SHIuStar     Counter:       1   Parms: SM      L1      
(PID.TID 0000.0001) streamice solo_time_step: nIter0000011396 0.11E+00seconds
 time_step_loc    9.5129375951293768E-006
(PID.TID 0000.0001) END STREAMICE_ADVECT_THICKNESS
 cg2d: Sum(rhs),rhsMax =   1.18799876908922E-01  5.71293739504056E+01
(PID.TID 0000.0001)      cg2d_init_res =   6.75396119496470E-05
(PID.TID 0000.0001)      cg2d_iters(min,last) =      -1     115
(PID.TID 0000.0001)      cg2d_last_res =   5.46216143463692E-12
(PID.TID 0000.0001) CALLING FILL DIAGNOSTICS
(PID.TID 0000.0001) // =======================================================
(PID.TID 0000.0001) // Begin MONITOR dynamic field statistics
(PID.TID 0000.0001) // =======================================================
(PID.TID 0000.0001) %MON time_tsnumber                =                 11397
(PID.TID 0000.0001) %MON time_secondsf                =   3.4191000000000E+06
(PID.TID 0000.0001) %MON dynstat_eta_max              =   2.5003579567971E+00
(PID.TID 0000.0001) %MON dynstat_eta_min              =  -7.4556393847188E+00
(PID.TID 0000.0001) %MON dynstat_eta_mean             =  -1.2864662551481E+00
(PID.TID 0000.0001) %MON dynstat_eta_sd               =   2.4093616305014E+00
(PID.TID 0000.0001) %MON dynstat_eta_del2             =   1.8293495760155E-01
(PID.TID 0000.0001) %MON dynstat_uvel_max             =   6.2559896326833E-12
(PID.TID 0000.0001) %MON dynstat_uvel_min             =  -6.3000591509313E-12
(PID.TID 0000.0001) %MON dynstat_uvel_mean            =  -8.9743192933858E-26
(PID.TID 0000.0001) %MON dynstat_uvel_sd              =   9.2901482574562E-13
(PID.TID 0000.0001) %MON dynstat_uvel_del2            =   2.2659033369067E-14
(PID.TID 0000.0001) %MON dynstat_vvel_max             =   1.9868981222705E-01
(PID.TID 0000.0001) %MON dynstat_vvel_min             =  -1.1045574144383E-01
(PID.TID 0000.0001) %MON dynstat_vvel_mean            =   5.7104337736401E-07
(PID.TID 0000.0001) %MON dynstat_vvel_sd              =   5.1886594806170E-02
(PID.TID 0000.0001) %MON dynstat_vvel_del2            =   1.5358569109259E-05
(PID.TID 0000.0001) %MON dynstat_wvel_max             =   1.2388320389392E-02
(PID.TID 0000.0001) %MON dynstat_wvel_min             =  -7.7737362140494E-03
(PID.TID 0000.0001) %MON dynstat_wvel_mean            =   3.0022119612724E-05
(PID.TID 0000.0001) %MON dynstat_wvel_sd              =   6.8031598058214E-04
(PID.TID 0000.0001) %MON dynstat_wvel_del2            =   3.9283584852861E-06
(PID.TID 0000.0001) %MON dynstat_theta_max            =   1.9439532376756E+00
(PID.TID 0000.0001) %MON dynstat_theta_min            =  -1.8515578763915E+00
(PID.TID 0000.0001) %MON dynstat_theta_mean           =   2.2441689261146E-02
(PID.TID 0000.0001) %MON dynstat_theta_sd             =   1.2764645394557E+00
(PID.TID 0000.0001) %MON dynstat_theta_del2           =   5.7678220374544E-05
(PID.TID 0000.0001) %MON dynstat_salt_max             =   3.4692814517651E+01
(PID.TID 0000.0001) %MON dynstat_salt_min             =   3.3812116173061E+01
(PID.TID 0000.0001) %MON dynstat_salt_mean            =   3.4431623249179E+01
(PID.TID 0000.0001) %MON dynstat_salt_sd              =   1.8349429912006E-01
(PID.TID 0000.0001) %MON dynstat_salt_del2            =   1.5925647877896E-05
(PID.TID 0000.0001) %MON advcfl_uvel_max              =   4.9827307199647E-13
(PID.TID 0000.0001) %MON advcfl_vvel_max              =   6.8626211403093E-02
(PID.TID 0000.0001) %MON advcfl_wvel_max              =   3.7164961168177E-01
(PID.TID 0000.0001) %MON advcfl_W_hf_max              =   3.7164961168177E-01
(PID.TID 0000.0001) %MON pe_b_mean                    =  -2.7185735531321E-01
(PID.TID 0000.0001) %MON ke_max                       =   1.9724807697928E-02
(PID.TID 0000.0001) %MON ke_mean                      =   1.3460753080047E-03
(PID.TID 0000.0001) %MON ke_vol                       =   1.3174235663479E+12
(PID.TID 0000.0001) // =======================================================
(PID.TID 0000.0001) // End MONITOR dynamic field statistics
(PID.TID 0000.0001) // =======================================================
(PID.TID 0000.0001) // =======================================================
(PID.TID 0000.0001) // Begin OBCS MONITOR field statistics
(PID.TID 0000.0001) // =======================================================
(PID.TID 0000.0001) %MON obc_N_vVel_max               =   2.5000000000000E-02
(PID.TID 0000.0001) %MON obc_N_vVel_min               =  -2.5000000000000E-02
(PID.TID 0000.0001) %MON obc_N_vVel_mean              =   1.0701309254946E-18
(PID.TID 0000.0001) %MON obc_N_vVel_sd                =   1.4595032760272E-02
(PID.TID 0000.0001) %MON obc_N_vVel_Int               =   1.1141310096718E-11
(PID.TID 0000.0001) // =======================================================
(PID.TID 0000.0001) // End OBCS MONITOR field statistics
(PID.TID 0000.0001) // =======================================================
 Computing Diagnostic #    209  SHIfwFlx     Counter:       1   Parms: SM      L1      
 Computing Diagnostic #    210  SHIhtFlx     Counter:       1   Parms: SM      L1      
 Computing Diagnostic #    215  SHIgammT     Counter:       1   Parms: SM      L1      
 Computing Diagnostic #    216  SHIgammS     Counter:       1   Parms: SM      L1      
 Computing Diagnostic #    218  SHI_mass     Counter:       1   Parms: SM      L1      
 Computing Diagnostic #    219  SHIRshel     Counter:       1   Parms: SM      L1      
 Computing Diagnostic #    194  SI_Uvel      Counter:       1   Parms: UZ      L1      
 Computing Diagnostic #    195  SI_Vvel      Counter:       1   Parms: VZ      L1      
 Computing Diagnostic #    196  SI_Thick     Counter:       1   Parms: SM      L1      
 Computing Diagnostic #    199  SI_hmask     Counter:       1   Parms: SM      L1      
 Computing Diagnostic #    198  SI_float     Counter:       1   Parms: SM      L1      
 Computing Diagnostic #    217  SHIuStar     Counter:       1   Parms: SM      L1      
(PID.TID 0000.0001) streamice solo_time_step: nIter0000011397 0.11E+00seconds
 time_step_loc    9.5129375951293768E-006
(PID.TID 0000.0001) END STREAMICE_ADVECT_THICKNESS
 cg2d: Sum(rhs),rhsMax =   1.18792430491169E-01  5.71292597531632E+01
(PID.TID 0000.0001)      cg2d_init_res =   6.75404070970761E-05
(PID.TID 0000.0001)      cg2d_iters(min,last) =      -1     115
(PID.TID 0000.0001)      cg2d_last_res =   5.46231868763699E-12
(PID.TID 0000.0001) CALLING FILL DIAGNOSTICS
(PID.TID 0000.0001) // =======================================================
(PID.TID 0000.0001) // Begin MONITOR dynamic field statistics
(PID.TID 0000.0001) // =======================================================
(PID.TID 0000.0001) %MON time_tsnumber                =                 11398
(PID.TID 0000.0001) %MON time_secondsf                =   3.4194000000000E+06
(PID.TID 0000.0001) %MON dynstat_eta_max              =   2.5005387391679E+00
(PID.TID 0000.0001) %MON dynstat_eta_min              =  -7.4554953957085E+00
(PID.TID 0000.0001) %MON dynstat_eta_mean             =  -1.2863830476078E+00
(PID.TID 0000.0001) %MON dynstat_eta_sd               =   2.4093124017722E+00
(PID.TID 0000.0001) %MON dynstat_eta_del2             =   1.8293496428136E-01
(PID.TID 0000.0001) %MON dynstat_uvel_max             =   6.9090542497924E-12
(PID.TID 0000.0001) %MON dynstat_uvel_min             =  -6.9444121419835E-12
(PID.TID 0000.0001) %MON dynstat_uvel_mean            =  -8.8773156613685E-26
(PID.TID 0000.0001) %MON dynstat_uvel_sd              =   9.3846082465520E-13
(PID.TID 0000.0001) %MON dynstat_uvel_del2            =   2.2889063231988E-14
(PID.TID 0000.0001) %MON dynstat_vvel_max             =   1.9869233440131E-01
(PID.TID 0000.0001) %MON dynstat_vvel_min             =  -1.1045331882066E-01
(PID.TID 0000.0001) %MON dynstat_vvel_mean            =   5.7105413166203E-07
(PID.TID 0000.0001) %MON dynstat_vvel_sd              =   5.1888701879297E-02
(PID.TID 0000.0001) %MON dynstat_vvel_del2            =   1.5358745941013E-05
(PID.TID 0000.0001) %MON dynstat_wvel_max             =   1.2388032060322E-02
(PID.TID 0000.0001) %MON dynstat_wvel_min             =  -7.7749796933461E-03
(PID.TID 0000.0001) %MON dynstat_wvel_mean            =   3.0022119704854E-05
(PID.TID 0000.0001) %MON dynstat_wvel_sd              =   6.8033697492560E-04
(PID.TID 0000.0001) %MON dynstat_wvel_del2            =   3.9285994302903E-06
(PID.TID 0000.0001) %MON dynstat_theta_max            =   1.9439539593630E+00
(PID.TID 0000.0001) %MON dynstat_theta_min            =  -1.8515503962151E+00
(PID.TID 0000.0001) %MON dynstat_theta_mean           =   2.2453338020937E-02
(PID.TID 0000.0001) %MON dynstat_theta_sd             =   1.2764614412477E+00
(PID.TID 0000.0001) %MON dynstat_theta_del2           =   5.7681225830640E-05
(PID.TID 0000.0001) %MON dynstat_salt_max             =   3.4692814610175E+01
(PID.TID 0000.0001) %MON dynstat_salt_min             =   3.3812116391773E+01
(PID.TID 0000.0001) %MON dynstat_salt_mean            =   3.4431623979060E+01
(PID.TID 0000.0001) %MON dynstat_salt_sd              =   1.8349490135784E-01
(PID.TID 0000.0001) %MON dynstat_salt_del2            =   1.5925660664176E-05
(PID.TID 0000.0001) %MON advcfl_uvel_max              =   5.4897126168998E-13
(PID.TID 0000.0001) %MON advcfl_vvel_max              =   6.8627082546219E-02
(PID.TID 0000.0001) %MON advcfl_wvel_max              =   3.7164096180965E-01
(PID.TID 0000.0001) %MON advcfl_W_hf_max              =   3.7164096180965E-01
(PID.TID 0000.0001) %MON pe_b_mean                    =  -2.7184039332324E-01
(PID.TID 0000.0001) %MON ke_max                       =   1.9725373876808E-02
(PID.TID 0000.0001) %MON ke_mean                      =   1.3461846660173E-03
(PID.TID 0000.0001) %MON ke_vol                       =   1.3174237241350E+12
(PID.TID 0000.0001) // =======================================================
(PID.TID 0000.0001) // End MONITOR dynamic field statistics
(PID.TID 0000.0001) // =======================================================
(PID.TID 0000.0001) // =======================================================
(PID.TID 0000.0001) // Begin OBCS MONITOR field statistics
(PID.TID 0000.0001) // =======================================================
(PID.TID 0000.0001) %MON obc_N_vVel_max               =   2.5000000000000E-02
(PID.TID 0000.0001) %MON obc_N_vVel_min               =  -2.5000000000000E-02
(PID.TID 0000.0001) %MON obc_N_vVel_mean              =   1.0701309254946E-18
(PID.TID 0000.0001) %MON obc_N_vVel_sd                =   1.4595032760272E-02
(PID.TID 0000.0001) %MON obc_N_vVel_Int               =   1.1141310096718E-11
(PID.TID 0000.0001) // =======================================================
(PID.TID 0000.0001) // End OBCS MONITOR field statistics
(PID.TID 0000.0001) // =======================================================
 Computing Diagnostic #    209  SHIfwFlx     Counter:       1   Parms: SM      L1      
 Computing Diagnostic #    210  SHIhtFlx     Counter:       1   Parms: SM      L1      
 Computing Diagnostic #    215  SHIgammT     Counter:       1   Parms: SM      L1      
 Computing Diagnostic #    216  SHIgammS     Counter:       1   Parms: SM      L1      
 Computing Diagnostic #    218  SHI_mass     Counter:       1   Parms: SM      L1      
 Computing Diagnostic #    219  SHIRshel     Counter:       1   Parms: SM      L1      
 Computing Diagnostic #    194  SI_Uvel      Counter:       1   Parms: UZ      L1      
 Computing Diagnostic #    195  SI_Vvel      Counter:       1   Parms: VZ      L1      
 Computing Diagnostic #    196  SI_Thick     Counter:       1   Parms: SM      L1      
 Computing Diagnostic #    199  SI_hmask     Counter:       1   Parms: SM      L1      
 Computing Diagnostic #    198  SI_float     Counter:       1   Parms: SM      L1      
 Computing Diagnostic #    217  SHIuStar     Counter:       1   Parms: SM      L1      
(PID.TID 0000.0001) streamice solo_time_step: nIter0000011398 0.11E+00seconds
 time_step_loc    9.5129375951293768E-006
(PID.TID 0000.0001) END STREAMICE_ADVECT_THICKNESS
 cg2d: Sum(rhs),rhsMax =   1.18784984448862E-01  5.71291455574293E+01
(PID.TID 0000.0001)      cg2d_init_res =   6.75411981043379E-05
(PID.TID 0000.0001)      cg2d_iters(min,last) =      -1     115
(PID.TID 0000.0001)      cg2d_last_res =   5.46254096023581E-12
(PID.TID 0000.0001) CALLING FILL DIAGNOSTICS
(PID.TID 0000.0001) // =======================================================
(PID.TID 0000.0001) // Begin MONITOR dynamic field statistics
(PID.TID 0000.0001) // =======================================================
(PID.TID 0000.0001) %MON time_tsnumber                =                 11399
(PID.TID 0000.0001) %MON time_secondsf                =   3.4197000000000E+06
(PID.TID 0000.0001) %MON dynstat_eta_max              =   2.5007195163979E+00
(PID.TID 0000.0001) %MON dynstat_eta_min              =  -7.4553514363735E+00
(PID.TID 0000.0001) %MON dynstat_eta_mean             =  -1.2862998444896E+00
(PID.TID 0000.0001) %MON dynstat_eta_sd               =   2.4092631781951E+00
(PID.TID 0000.0001) %MON dynstat_eta_del2             =   1.8293497099238E-01
(PID.TID 0000.0001) %MON dynstat_uvel_max             =   6.4902682341395E-12
(PID.TID 0000.0001) %MON dynstat_uvel_min             =  -6.5250340007805E-12
(PID.TID 0000.0001) %MON dynstat_uvel_mean            =  -8.9981924440956E-26
(PID.TID 0000.0001) %MON dynstat_uvel_sd              =   9.3233696025637E-13
(PID.TID 0000.0001) %MON dynstat_uvel_del2            =   2.2740620221164E-14
(PID.TID 0000.0001) %MON dynstat_vvel_max             =   1.9869497058786E-01
(PID.TID 0000.0001) %MON dynstat_vvel_min             =  -1.1045089153361E-01
(PID.TID 0000.0001) %MON dynstat_vvel_mean            =   5.7106710132101E-07
(PID.TID 0000.0001) %MON dynstat_vvel_sd              =   5.1890803549401E-02
(PID.TID 0000.0001) %MON dynstat_vvel_del2            =   1.5358923162447E-05
(PID.TID 0000.0001) %MON dynstat_wvel_max             =   1.2387743777538E-02
(PID.TID 0000.0001) %MON dynstat_wvel_min             =  -7.7762242179496E-03
(PID.TID 0000.0001) %MON dynstat_wvel_mean            =   3.0022119799728E-05
(PID.TID 0000.0001) %MON dynstat_wvel_sd              =   6.8035799665562E-04
(PID.TID 0000.0001) %MON dynstat_wvel_del2            =   3.9288406782637E-06
(PID.TID 0000.0001) %MON dynstat_theta_max            =   1.9439546811101E+00
(PID.TID 0000.0001) %MON dynstat_theta_min            =  -1.8515429047506E+00
(PID.TID 0000.0001) %MON dynstat_theta_mean           =   2.2464979747843E-02
(PID.TID 0000.0001) %MON dynstat_theta_sd             =   1.2764583450915E+00
(PID.TID 0000.0001) %MON dynstat_theta_del2           =   5.7684235212964E-05
(PID.TID 0000.0001) %MON dynstat_salt_max             =   3.4692814702706E+01
(PID.TID 0000.0001) %MON dynstat_salt_min             =   3.3812116626524E+01
(PID.TID 0000.0001) %MON dynstat_salt_mean            =   3.4431624708648E+01
(PID.TID 0000.0001) %MON dynstat_salt_sd              =   1.8349550292719E-01
(PID.TID 0000.0001) %MON dynstat_salt_del2            =   1.5925672671408E-05
(PID.TID 0000.0001) %MON advcfl_uvel_max              =   5.1606638264178E-13
(PID.TID 0000.0001) %MON advcfl_vvel_max              =   6.8627993068473E-02
(PID.TID 0000.0001) %MON advcfl_wvel_max              =   3.7163231332613E-01
(PID.TID 0000.0001) %MON advcfl_W_hf_max              =   3.7163231332613E-01
(PID.TID 0000.0001) %MON pe_b_mean                    =  -2.7182343257220E-01
(PID.TID 0000.0001) %MON ke_max                       =   1.9725960908923E-02
(PID.TID 0000.0001) %MON ke_mean                      =   1.3462937480345E-03
(PID.TID 0000.0001) %MON ke_vol                       =   1.3174238819137E+12
(PID.TID 0000.0001) // =======================================================
(PID.TID 0000.0001) // End MONITOR dynamic field statistics
(PID.TID 0000.0001) // =======================================================
(PID.TID 0000.0001) // =======================================================
(PID.TID 0000.0001) // Begin OBCS MONITOR field statistics
(PID.TID 0000.0001) // =======================================================
(PID.TID 0000.0001) %MON obc_N_vVel_max               =   2.5000000000000E-02
(PID.TID 0000.0001) %MON obc_N_vVel_min               =  -2.5000000000000E-02
(PID.TID 0000.0001) %MON obc_N_vVel_mean              =   1.0701309254946E-18
(PID.TID 0000.0001) %MON obc_N_vVel_sd                =   1.4595032760272E-02
(PID.TID 0000.0001) %MON obc_N_vVel_Int               =   1.1141310096718E-11
(PID.TID 0000.0001) // =======================================================
(PID.TID 0000.0001) // End OBCS MONITOR field statistics
(PID.TID 0000.0001) // =======================================================
 Computing Diagnostic #    209  SHIfwFlx     Counter:       1   Parms: SM      L1      
 Computing Diagnostic #    210  SHIhtFlx     Counter:       1   Parms: SM      L1      
 Computing Diagnostic #    215  SHIgammT     Counter:       1   Parms: SM      L1      
 Computing Diagnostic #    216  SHIgammS     Counter:       1   Parms: SM      L1      
 Computing Diagnostic #    218  SHI_mass     Counter:       1   Parms: SM      L1      
 Computing Diagnostic #    219  SHIRshel     Counter:       1   Parms: SM      L1      
 Computing Diagnostic #    194  SI_Uvel      Counter:       1   Parms: UZ      L1      
 Computing Diagnostic #    195  SI_Vvel      Counter:       1   Parms: VZ      L1      
 Computing Diagnostic #    196  SI_Thick     Counter:       1   Parms: SM      L1      
 Computing Diagnostic #    199  SI_hmask     Counter:       1   Parms: SM      L1      
 Computing Diagnostic #    198  SI_float     Counter:       1   Parms: SM      L1      
 Computing Diagnostic #    217  SHIuStar     Counter:       1   Parms: SM      L1      
(PID.TID 0000.0001) streamice solo_time_step: nIter0000011399 0.11E+00seconds
 time_step_loc    9.5129375951293768E-006
(PID.TID 0000.0001) END STREAMICE_ADVECT_THICKNESS
 cg2d: Sum(rhs),rhsMax =   1.18777538782392E-01  5.71290313630042E+01
(PID.TID 0000.0001)      cg2d_init_res =   6.75419895215164E-05
(PID.TID 0000.0001)      cg2d_iters(min,last) =      -1     115
(PID.TID 0000.0001)      cg2d_last_res =   5.46272963594435E-12
(PID.TID 0000.0001) CALLING FILL DIAGNOSTICS
(PID.TID 0000.0001) // =======================================================
(PID.TID 0000.0001) // Begin MONITOR dynamic field statistics
(PID.TID 0000.0001) // =======================================================
(PID.TID 0000.0001) %MON time_tsnumber                =                 11400
(PID.TID 0000.0001) %MON time_secondsf                =   3.4200000000000E+06
(PID.TID 0000.0001) %MON dynstat_eta_max              =   2.5009002884965E+00
(PID.TID 0000.0001) %MON dynstat_eta_min              =  -7.4552075066667E+00
(PID.TID 0000.0001) %MON dynstat_eta_mean             =  -1.2862166457930E+00
(PID.TID 0000.0001) %MON dynstat_eta_sd               =   2.4092139597625E+00
(PID.TID 0000.0001) %MON dynstat_eta_del2             =   1.8293497773469E-01
(PID.TID 0000.0001) %MON dynstat_uvel_max             =   6.7827639085429E-12
(PID.TID 0000.0001) %MON dynstat_uvel_min             =  -6.8069587733040E-12
(PID.TID 0000.0001) %MON dynstat_uvel_mean            =  -8.9799700104196E-26
(PID.TID 0000.0001) %MON dynstat_uvel_sd              =   9.3665561204675E-13
(PID.TID 0000.0001) %MON dynstat_uvel_del2            =   2.2845584046451E-14
(PID.TID 0000.0001) %MON dynstat_vvel_max             =   1.9869771939777E-01
(PID.TID 0000.0001) %MON dynstat_vvel_min             =  -1.1044845952684E-01
(PID.TID 0000.0001) %MON dynstat_vvel_mean            =   5.7107692465866E-07
(PID.TID 0000.0001) %MON dynstat_vvel_sd              =   5.1892899809273E-02
(PID.TID 0000.0001) %MON dynstat_vvel_del2            =   1.5359100754252E-05
(PID.TID 0000.0001) %MON dynstat_wvel_max             =   1.2387455562429E-02
(PID.TID 0000.0001) %MON dynstat_wvel_min             =  -7.7774697891296E-03
(PID.TID 0000.0001) %MON dynstat_wvel_mean            =   3.0022119876708E-05
(PID.TID 0000.0001) %MON dynstat_wvel_sd              =   6.8037904616160E-04
(PID.TID 0000.0001) %MON dynstat_wvel_del2            =   3.9290822131617E-06
(PID.TID 0000.0001) %MON dynstat_theta_max            =   1.9439554029057E+00
(PID.TID 0000.0001) %MON dynstat_theta_min            =  -1.8515354019115E+00
(PID.TID 0000.0001) %MON dynstat_theta_mean           =   2.2476614437651E-02
(PID.TID 0000.0001) %MON dynstat_theta_sd             =   1.2764552509930E+00
(PID.TID 0000.0001) %MON dynstat_theta_del2           =   5.7687248257200E-05
(PID.TID 0000.0001) %MON dynstat_salt_max             =   3.4692814795244E+01
(PID.TID 0000.0001) %MON dynstat_salt_min             =   3.3812116877206E+01
(PID.TID 0000.0001) %MON dynstat_salt_mean            =   3.4431625437942E+01
(PID.TID 0000.0001) %MON dynstat_salt_sd              =   1.8349610382835E-01
(PID.TID 0000.0001) %MON dynstat_salt_del2            =   1.5925683926131E-05
(PID.TID 0000.0001) %MON advcfl_uvel_max              =   5.3817582741000E-13
(PID.TID 0000.0001) %MON advcfl_vvel_max              =   6.8628942490123E-02
(PID.TID 0000.0001) %MON advcfl_wvel_max              =   3.7162366687286E-01
(PID.TID 0000.0001) %MON advcfl_W_hf_max              =   3.7162366687286E-01
(PID.TID 0000.0001) %MON pe_b_mean                    =  -2.7180647305844E-01
(PID.TID 0000.0001) %MON ke_max                       =   1.9726568518201E-02
(PID.TID 0000.0001) %MON ke_mean                      =   1.3464025536479E-03
(PID.TID 0000.0001) %MON ke_vol                       =   1.3174240396840E+12
(PID.TID 0000.0001) // =======================================================
(PID.TID 0000.0001) // End MONITOR dynamic field statistics
(PID.TID 0000.0001) // =======================================================
(PID.TID 0000.0001) // =======================================================
(PID.TID 0000.0001) // Begin OBCS MONITOR field statistics
(PID.TID 0000.0001) // =======================================================
(PID.TID 0000.0001) %MON obc_N_vVel_max               =   2.5000000000000E-02
(PID.TID 0000.0001) %MON obc_N_vVel_min               =  -2.5000000000000E-02
(PID.TID 0000.0001) %MON obc_N_vVel_mean              =   1.0701309254946E-18
(PID.TID 0000.0001) %MON obc_N_vVel_sd                =   1.4595032760272E-02
(PID.TID 0000.0001) %MON obc_N_vVel_Int               =   1.1141310096718E-11
(PID.TID 0000.0001) // =======================================================
(PID.TID 0000.0001) // End OBCS MONITOR field statistics
(PID.TID 0000.0001) // =======================================================
 Computing Diagnostic #    209  SHIfwFlx     Counter:       1   Parms: SM      L1      
 Computing Diagnostic #    210  SHIhtFlx     Counter:       1   Parms: SM      L1      
 Computing Diagnostic #    215  SHIgammT     Counter:       1   Parms: SM      L1      
 Computing Diagnostic #    216  SHIgammS     Counter:       1   Parms: SM      L1      
 Computing Diagnostic #    218  SHI_mass     Counter:       1   Parms: SM      L1      
 Computing Diagnostic #    219  SHIRshel     Counter:       1   Parms: SM      L1      
 Computing Diagnostic #    194  SI_Uvel      Counter:       1   Parms: UZ      L1      
 Computing Diagnostic #    195  SI_Vvel      Counter:       1   Parms: VZ      L1      
 Computing Diagnostic #    196  SI_Thick     Counter:       1   Parms: SM      L1      
 Computing Diagnostic #    199  SI_hmask     Counter:       1   Parms: SM      L1      
 Computing Diagnostic #    198  SI_float     Counter:       1   Parms: SM      L1      
 Computing Diagnostic #    217  SHIuStar     Counter:       1   Parms: SM      L1      
(PID.TID 0000.0001) SHI_REMESH at it=     11400
(PID.TID 0000.0001) --> REMESH in:    1   68   1   1 , x,y=  -1.054E+02  -7.492E+01
(PID.TID 0000.0001)  before:  ks=  40 Ro_s=  -3.900E+02 eta=   2.501E+00 hFac=   1.250E+00
(PID.TID 0000.0001)  after :  ks=  39 Ro_s=  -3.800E+02 eta=  -7.499E+00 hFac=   2.501E-01
(PID.TID 0000.0001) --> REMESH in:    2   68   1   1 , x,y=  -1.053E+02  -7.492E+01
(PID.TID 0000.0001)  before:  ks=  40 Ro_s=  -3.900E+02 eta=   2.501E+00 hFac=   1.250E+00
(PID.TID 0000.0001)  after :  ks=  39 Ro_s=  -3.800E+02 eta=  -7.499E+00 hFac=   2.501E-01
(PID.TID 0000.0001) --> REMESH in:    3   68   1   1 , x,y=  -1.052E+02  -7.492E+01
(PID.TID 0000.0001)  before:  ks=  40 Ro_s=  -3.900E+02 eta=   2.501E+00 hFac=   1.250E+00
(PID.TID 0000.0001)  after :  ks=  39 Ro_s=  -3.800E+02 eta=  -7.499E+00 hFac=   2.501E-01
(PID.TID 0000.0001) SHI_REMESH : end of report
(PID.TID 0000.0001) streamice solo_time_step: nIter0000011400 0.11E+00seconds
 time_step_loc    9.5129375951293768E-006
(PID.TID 0000.0001) END STREAMICE_ADVECT_THICKNESS
 cg2d: Sum(rhs),rhsMax =   1.23358792440343E-01  5.71289171700638E+01
(PID.TID 0000.0001)      cg2d_init_res =   7.87201189229686E-05
(PID.TID 0000.0001)      cg2d_iters(min,last) =      -1     115
(PID.TID 0000.0001)      cg2d_last_res =   5.44772289228339E-12
(PID.TID 0000.0001) CALLING FILL DIAGNOSTICS
(PID.TID 0000.0001) // =======================================================
(PID.TID 0000.0001) // Begin MONITOR dynamic field statistics
(PID.TID 0000.0001) // =======================================================
(PID.TID 0000.0001) %MON time_tsnumber                =                 11401
(PID.TID 0000.0001) %MON time_secondsf                =   3.4203000000000E+06
(PID.TID 0000.0001) %MON dynstat_eta_max              =   2.4707427995928E+00
(PID.TID 0000.0001) %MON dynstat_eta_min              =  -7.4988230843439E+00
(PID.TID 0000.0001) %MON dynstat_eta_mean             =  -1.3358233948674E+00
(PID.TID 0000.0001) %MON dynstat_eta_sd               =   2.4335420967644E+00
(PID.TID 0000.0001) %MON dynstat_eta_del2             =   1.8281100684732E-01
(PID.TID 0000.0001) %MON dynstat_uvel_max             =   6.5308314748665E-12
(PID.TID 0000.0001) %MON dynstat_uvel_min             =  -6.5936745401100E-12
(PID.TID 0000.0001) %MON dynstat_uvel_mean            =  -9.1199771033243E-26
(PID.TID 0000.0001) %MON dynstat_uvel_sd              =   9.4766837868108E-13
(PID.TID 0000.0001) %MON dynstat_uvel_del2            =   2.3112703917626E-14
(PID.TID 0000.0001) %MON dynstat_vvel_max             =   1.9870052481968E-01
(PID.TID 0000.0001) %MON dynstat_vvel_min             =  -1.1044604126273E-01
(PID.TID 0000.0001) %MON dynstat_vvel_mean            =   5.9445565234582E-07
(PID.TID 0000.0001) %MON dynstat_vvel_sd              =   5.1894788657549E-02
(PID.TID 0000.0001) %MON dynstat_vvel_del2            =   1.5279662689681E-05
(PID.TID 0000.0001) %MON dynstat_wvel_max             =   1.2387161340773E-02
(PID.TID 0000.0001) %MON dynstat_wvel_min             =  -7.7787164563894E-03
(PID.TID 0000.0001) %MON dynstat_wvel_mean            =   3.0019990131335E-05
(PID.TID 0000.0001) %MON dynstat_wvel_sd              =   6.8037049104344E-04
(PID.TID 0000.0001) %MON dynstat_wvel_del2            =   3.9289476073632E-06
(PID.TID 0000.0001) %MON dynstat_theta_max            =   1.9439561247390E+00
(PID.TID 0000.0001) %MON dynstat_theta_min            =  -1.8515278876049E+00
(PID.TID 0000.0001) %MON dynstat_theta_mean           =   2.2488243446180E-02
(PID.TID 0000.0001) %MON dynstat_theta_sd             =   1.2764521434940E+00
(PID.TID 0000.0001) %MON dynstat_theta_del2           =   5.7998640264050E-05
(PID.TID 0000.0001) %MON dynstat_salt_max             =   3.4692814887787E+01
(PID.TID 0000.0001) %MON dynstat_salt_min             =   3.3812117141309E+01
(PID.TID 0000.0001) %MON dynstat_salt_mean            =   3.4431626167485E+01
(PID.TID 0000.0001) %MON dynstat_salt_sd              =   1.8349668652296E-01
(PID.TID 0000.0001) %MON dynstat_salt_del2            =   1.6113117800338E-05
(PID.TID 0000.0001) %MON advcfl_uvel_max              =   5.2149517808256E-13
(PID.TID 0000.0001) %MON advcfl_vvel_max              =   6.8629911465207E-02
(PID.TID 0000.0001) %MON advcfl_wvel_max              =   3.7161484022318E-01
(PID.TID 0000.0001) %MON advcfl_W_hf_max              =   3.7161484022318E-01
(PID.TID 0000.0001) %MON pe_b_mean                    =  -2.8129482108519E-01
(PID.TID 0000.0001) %MON ke_max                       =   1.9727185325512E-02
(PID.TID 0000.0001) %MON ke_mean                      =   1.3465005974174E-03
(PID.TID 0000.0001) %MON ke_vol                       =   1.3174241974459E+12
(PID.TID 0000.0001) // =======================================================
(PID.TID 0000.0001) // End MONITOR dynamic field statistics
(PID.TID 0000.0001) // =======================================================
(PID.TID 0000.0001) // =======================================================
(PID.TID 0000.0001) // Begin OBCS MONITOR field statistics
(PID.TID 0000.0001) // =======================================================
(PID.TID 0000.0001) %MON obc_N_vVel_max               =   2.5000000000000E-02
(PID.TID 0000.0001) %MON obc_N_vVel_min               =  -2.5000000000000E-02
(PID.TID 0000.0001) %MON obc_N_vVel_mean              =   1.0701309254946E-18
(PID.TID 0000.0001) %MON obc_N_vVel_sd                =   1.4595032760272E-02
(PID.TID 0000.0001) %MON obc_N_vVel_Int               =   1.1141310096718E-11
(PID.TID 0000.0001) // =======================================================
(PID.TID 0000.0001) // End OBCS MONITOR field statistics
(PID.TID 0000.0001) // =======================================================
 Computing Diagnostic #    209  SHIfwFlx     Counter:       1   Parms: SM      L1      
 Computing Diagnostic #    210  SHIhtFlx     Counter:       1   Parms: SM      L1      
 Computing Diagnostic #    215  SHIgammT     Counter:       1   Parms: SM      L1      
 Computing Diagnostic #    216  SHIgammS     Counter:       1   Parms: SM      L1      
 Computing Diagnostic #    218  SHI_mass     Counter:       1   Parms: SM      L1      
 Computing Diagnostic #    219  SHIRshel     Counter:       1   Parms: SM      L1      
 Computing Diagnostic #    194  SI_Uvel      Counter:       1   Parms: UZ      L1      
 Computing Diagnostic #    195  SI_Vvel      Counter:       1   Parms: VZ      L1      
 Computing Diagnostic #    196  SI_Thick     Counter:       1   Parms: SM      L1      
 Computing Diagnostic #    199  SI_hmask     Counter:       1   Parms: SM      L1      
 Computing Diagnostic #    198  SI_float     Counter:       1   Parms: SM      L1      
 Computing Diagnostic #    217  SHIuStar     Counter:       1   Parms: SM      L1      
(PID.TID 0000.0001) streamice solo_time_step: nIter0000011401 0.11E+00seconds
 time_step_loc    9.5129375951293768E-006
(PID.TID 0000.0001) END STREAMICE_ADVECT_THICKNESS
 cg2d: Sum(rhs),rhsMax =   1.23351357711694E-01  5.71288029509868E+01
(PID.TID 0000.0001)      cg2d_init_res =   6.75992884539502E-05
(PID.TID 0000.0001)      cg2d_iters(min,last) =      -1     115
(PID.TID 0000.0001)      cg2d_last_res =   5.54708223403984E-12
(PID.TID 0000.0001) CALLING FILL DIAGNOSTICS
(PID.TID 0000.0001) // =======================================================
(PID.TID 0000.0001) // Begin MONITOR dynamic field statistics
(PID.TID 0000.0001) // =======================================================
(PID.TID 0000.0001) %MON time_tsnumber                =                 11402
(PID.TID 0000.0001) %MON time_secondsf                =   3.4206000000000E+06
(PID.TID 0000.0001) %MON dynstat_eta_max              =   2.4709270951159E+00
(PID.TID 0000.0001) %MON dynstat_eta_min              =  -7.4986395860673E+00
(PID.TID 0000.0001) %MON dynstat_eta_mean             =  -1.3357402153572E+00
(PID.TID 0000.0001) %MON dynstat_eta_sd               =   2.4334914481483E+00
(PID.TID 0000.0001) %MON dynstat_eta_del2             =   1.8281099151333E-01
(PID.TID 0000.0001) %MON dynstat_uvel_max             =   6.6710412838090E-12
(PID.TID 0000.0001) %MON dynstat_uvel_min             =  -6.7245505455774E-12
(PID.TID 0000.0001) %MON dynstat_uvel_mean            =  -9.1282682167773E-26
(PID.TID 0000.0001) %MON dynstat_uvel_sd              =   9.5261309737967E-13
(PID.TID 0000.0001) %MON dynstat_uvel_del2            =   2.3233348498522E-14
(PID.TID 0000.0001) %MON dynstat_vvel_max             =   1.9870380477196E-01
(PID.TID 0000.0001) %MON dynstat_vvel_min             =  -1.1044350544581E-01
(PID.TID 0000.0001) %MON dynstat_vvel_mean            =   6.9879147598199E-07
(PID.TID 0000.0001) %MON dynstat_vvel_sd              =   5.1897098090778E-02
(PID.TID 0000.0001) %MON dynstat_vvel_del2            =   1.5269110137076E-05
(PID.TID 0000.0001) %MON dynstat_wvel_max             =   1.2386906418755E-02
(PID.TID 0000.0001) %MON dynstat_wvel_min             =  -7.7799639848037E-03
(PID.TID 0000.0001) %MON dynstat_wvel_mean            =   3.0020417994816E-05
(PID.TID 0000.0001) %MON dynstat_wvel_sd              =   6.8039129950889E-04
(PID.TID 0000.0001) %MON dynstat_wvel_del2            =   3.9291539424699E-06
(PID.TID 0000.0001) %MON dynstat_theta_max            =   1.9439568465993E+00
(PID.TID 0000.0001) %MON dynstat_theta_min            =  -1.8515203617720E+00
(PID.TID 0000.0001) %MON dynstat_theta_mean           =   2.2499865724958E-02
(PID.TID 0000.0001) %MON dynstat_theta_sd             =   1.2764490409252E+00
(PID.TID 0000.0001) %MON dynstat_theta_del2           =   5.7934040558508E-05
(PID.TID 0000.0001) %MON dynstat_salt_max             =   3.4692814980333E+01
(PID.TID 0000.0001) %MON dynstat_salt_min             =   3.3812117436732E+01
(PID.TID 0000.0001) %MON dynstat_salt_mean            =   3.4431626896768E+01
(PID.TID 0000.0001) %MON dynstat_salt_sd              =   1.8349727226840E-01
(PID.TID 0000.0001) %MON dynstat_salt_del2            =   1.6071841408507E-05
(PID.TID 0000.0001) %MON advcfl_uvel_max              =   5.3159071233484E-13
(PID.TID 0000.0001) %MON advcfl_vvel_max              =   6.8631044340093E-02
(PID.TID 0000.0001) %MON advcfl_wvel_max              =   3.7160719256266E-01
(PID.TID 0000.0001) %MON advcfl_W_hf_max              =   3.7160719256266E-01
(PID.TID 0000.0001) %MON pe_b_mean                    =  -2.8127777555969E-01
(PID.TID 0000.0001) %MON ke_max                       =   1.9727896091512E-02
(PID.TID 0000.0001) %MON ke_mean                      =   1.3466204772364E-03
(PID.TID 0000.0001) %MON ke_vol                       =   1.3174243551802E+12
(PID.TID 0000.0001) // =======================================================
(PID.TID 0000.0001) // End MONITOR dynamic field statistics
(PID.TID 0000.0001) // =======================================================
(PID.TID 0000.0001) // =======================================================
(PID.TID 0000.0001) // Begin OBCS MONITOR field statistics
(PID.TID 0000.0001) // =======================================================
(PID.TID 0000.0001) %MON obc_N_vVel_max               =   2.5000000000000E-02
(PID.TID 0000.0001) %MON obc_N_vVel_min               =  -2.5000000000000E-02
(PID.TID 0000.0001) %MON obc_N_vVel_mean              =   1.0701309254946E-18
(PID.TID 0000.0001) %MON obc_N_vVel_sd                =   1.4595032760272E-02
(PID.TID 0000.0001) %MON obc_N_vVel_Int               =   1.1141310096718E-11
(PID.TID 0000.0001) // =======================================================
(PID.TID 0000.0001) // End OBCS MONITOR field statistics
(PID.TID 0000.0001) // =======================================================
 Computing Diagnostic #    209  SHIfwFlx     Counter:       1   Parms: SM      L1      
 Computing Diagnostic #    210  SHIhtFlx     Counter:       1   Parms: SM      L1      
 Computing Diagnostic #    215  SHIgammT     Counter:       1   Parms: SM      L1      
 Computing Diagnostic #    216  SHIgammS     Counter:       1   Parms: SM      L1      
 Computing Diagnostic #    218  SHI_mass     Counter:       1   Parms: SM      L1      
 Computing Diagnostic #    219  SHIRshel     Counter:       1   Parms: SM      L1      
 Computing Diagnostic #    194  SI_Uvel      Counter:       1   Parms: UZ      L1      
 Computing Diagnostic #    195  SI_Vvel      Counter:       1   Parms: VZ      L1      
 Computing Diagnostic #    196  SI_Thick     Counter:       1   Parms: SM      L1      
 Computing Diagnostic #    199  SI_hmask     Counter:       1   Parms: SM      L1      
 Computing Diagnostic #    198  SI_float     Counter:       1   Parms: SM      L1      
 Computing Diagnostic #    217  SHIuStar     Counter:       1   Parms: SM      L1      
(PID.TID 0000.0001) streamice solo_time_step: nIter0000011402 0.11E+00seconds
 time_step_loc    9.5129375951293768E-006
(PID.TID 0000.0001) END STREAMICE_ADVECT_THICKNESS
 cg2d: Sum(rhs),rhsMax =   1.23343921729963E-01  5.71286889114542E+01
(PID.TID 0000.0001)      cg2d_init_res =   6.74851917336873E-05
(PID.TID 0000.0001)      cg2d_iters(min,last) =      -1     115
(PID.TID 0000.0001)      cg2d_last_res =   5.50542840635628E-12
(PID.TID 0000.0001) CALLING FILL DIAGNOSTICS
(PID.TID 0000.0001) // =======================================================
(PID.TID 0000.0001) // Begin MONITOR dynamic field statistics
(PID.TID 0000.0001) // =======================================================
(PID.TID 0000.0001) %MON time_tsnumber                =                 11403
(PID.TID 0000.0001) %MON time_secondsf                =   3.4209000000000E+06
(PID.TID 0000.0001) %MON dynstat_eta_max              =   2.4711109728628E+00
(PID.TID 0000.0001) %MON dynstat_eta_min              =  -7.4984658023998E+00
(PID.TID 0000.0001) %MON dynstat_eta_mean             =  -1.3356570267974E+00
(PID.TID 0000.0001) %MON dynstat_eta_sd               =   2.4334411453366E+00
(PID.TID 0000.0001) %MON dynstat_eta_del2             =   1.8281098272110E-01
(PID.TID 0000.0001) %MON dynstat_uvel_max             =   6.8508352185208E-12
(PID.TID 0000.0001) %MON dynstat_uvel_min             =  -6.8998488114643E-12
(PID.TID 0000.0001) %MON dynstat_uvel_mean            =  -9.0217248478330E-26
(PID.TID 0000.0001) %MON dynstat_uvel_sd              =   9.4329440227903E-13
(PID.TID 0000.0001) %MON dynstat_uvel_del2            =   2.3005539020216E-14
(PID.TID 0000.0001) %MON dynstat_vvel_max             =   1.9870706251128E-01
(PID.TID 0000.0001) %MON dynstat_vvel_min             =  -1.1044093767434E-01
(PID.TID 0000.0001) %MON dynstat_vvel_mean            =   7.5394906837380E-07
(PID.TID 0000.0001) %MON dynstat_vvel_sd              =   5.1899365983436E-02
(PID.TID 0000.0001) %MON dynstat_vvel_del2            =   1.5248541334660E-05
(PID.TID 0000.0001) %MON dynstat_wvel_max             =   1.2386647572545E-02
(PID.TID 0000.0001) %MON dynstat_wvel_min             =  -7.7812119883344E-03
(PID.TID 0000.0001) %MON dynstat_wvel_mean            =   3.0020759381487E-05
(PID.TID 0000.0001) %MON dynstat_wvel_sd              =   6.8041448580751E-04
(PID.TID 0000.0001) %MON dynstat_wvel_del2            =   3.9294684820730E-06
(PID.TID 0000.0001) %MON dynstat_theta_max            =   1.9439575684775E+00
(PID.TID 0000.0001) %MON dynstat_theta_min            =  -1.8515128244132E+00
(PID.TID 0000.0001) %MON dynstat_theta_mean           =   2.2511478982734E-02
(PID.TID 0000.0001) %MON dynstat_theta_sd             =   1.2764459452835E+00
(PID.TID 0000.0001) %MON dynstat_theta_del2           =   5.7884547082608E-05
(PID.TID 0000.0001) %MON dynstat_salt_max             =   3.4692815072882E+01
(PID.TID 0000.0001) %MON dynstat_salt_min             =   3.3812117744524E+01
(PID.TID 0000.0001) %MON dynstat_salt_mean            =   3.4431627624982E+01
(PID.TID 0000.0001) %MON dynstat_salt_sd              =   1.8349786273559E-01
(PID.TID 0000.0001) %MON dynstat_salt_del2            =   1.6039730825341E-05
(PID.TID 0000.0001) %MON advcfl_uvel_max              =   5.4571056893828E-13
(PID.TID 0000.0001) %MON advcfl_vvel_max              =   6.8632169542761E-02
(PID.TID 0000.0001) %MON advcfl_wvel_max              =   3.7159942717634E-01
(PID.TID 0000.0001) %MON advcfl_W_hf_max              =   3.7159942717634E-01
(PID.TID 0000.0001) %MON pe_b_mean                    =  -2.8126075764168E-01
(PID.TID 0000.0001) %MON ke_max                       =   1.9728599694048E-02
(PID.TID 0000.0001) %MON ke_mean                      =   1.3467382058900E-03
(PID.TID 0000.0001) %MON ke_vol                       =   1.3174245129058E+12
(PID.TID 0000.0001) // =======================================================
(PID.TID 0000.0001) // End MONITOR dynamic field statistics
(PID.TID 0000.0001) // =======================================================
(PID.TID 0000.0001) // =======================================================
(PID.TID 0000.0001) // Begin OBCS MONITOR field statistics
(PID.TID 0000.0001) // =======================================================
(PID.TID 0000.0001) %MON obc_N_vVel_max               =   2.5000000000000E-02
(PID.TID 0000.0001) %MON obc_N_vVel_min               =  -2.5000000000000E-02
(PID.TID 0000.0001) %MON obc_N_vVel_mean              =   1.0701309254946E-18
(PID.TID 0000.0001) %MON obc_N_vVel_sd                =   1.4595032760272E-02
(PID.TID 0000.0001) %MON obc_N_vVel_Int               =   1.1141310096718E-11
(PID.TID 0000.0001) // =======================================================
(PID.TID 0000.0001) // End OBCS MONITOR field statistics
(PID.TID 0000.0001) // =======================================================
 Computing Diagnostic #    209  SHIfwFlx     Counter:       1   Parms: SM      L1      
 Computing Diagnostic #    210  SHIhtFlx     Counter:       1   Parms: SM      L1      
 Computing Diagnostic #    215  SHIgammT     Counter:       1   Parms: SM      L1      
 Computing Diagnostic #    216  SHIgammS     Counter:       1   Parms: SM      L1      
 Computing Diagnostic #    218  SHI_mass     Counter:       1   Parms: SM      L1      
 Computing Diagnostic #    219  SHIRshel     Counter:       1   Parms: SM      L1      
 Computing Diagnostic #    194  SI_Uvel      Counter:       1   Parms: UZ      L1      
 Computing Diagnostic #    195  SI_Vvel      Counter:       1   Parms: VZ      L1      
 Computing Diagnostic #    196  SI_Thick     Counter:       1   Parms: SM      L1      
 Computing Diagnostic #    199  SI_hmask     Counter:       1   Parms: SM      L1      
 Computing Diagnostic #    198  SI_float     Counter:       1   Parms: SM      L1      
 Computing Diagnostic #    217  SHIuStar     Counter:       1   Parms: SM      L1      
(PID.TID 0000.0001) streamice solo_time_step: nIter0000011403 0.11E+00seconds
 time_step_loc    9.5129375951293768E-006
(PID.TID 0000.0001) END STREAMICE_ADVECT_THICKNESS
 cg2d: Sum(rhs),rhsMax =   1.23336485334224E-01  5.71285748533434E+01
(PID.TID 0000.0001)      cg2d_init_res =   6.75076869324559E-05
(PID.TID 0000.0001)      cg2d_iters(min,last) =      -1     115
(PID.TID 0000.0001)      cg2d_last_res =   5.52802962696095E-12
(PID.TID 0000.0001) CALLING FILL DIAGNOSTICS
(PID.TID 0000.0001) // =======================================================
(PID.TID 0000.0001) // Begin MONITOR dynamic field statistics
(PID.TID 0000.0001) // =======================================================
(PID.TID 0000.0001) %MON time_tsnumber                =                 11404
(PID.TID 0000.0001) %MON time_secondsf                =   3.4212000000000E+06
(PID.TID 0000.0001) %MON dynstat_eta_max              =   2.4712950348591E+00
(PID.TID 0000.0001) %MON dynstat_eta_min              =  -7.4982915042442E+00
(PID.TID 0000.0001) %MON dynstat_eta_mean             =  -1.3355738336414E+00
(PID.TID 0000.0001) %MON dynstat_eta_sd               =   2.4333909123290E+00
(PID.TID 0000.0001) %MON dynstat_eta_del2             =   1.8281097413905E-01
(PID.TID 0000.0001) %MON dynstat_uvel_max             =   6.7075831518074E-12
(PID.TID 0000.0001) %MON dynstat_uvel_min             =  -6.7433633172440E-12
(PID.TID 0000.0001) %MON dynstat_uvel_mean            =  -9.1538815146890E-26
(PID.TID 0000.0001) %MON dynstat_uvel_sd              =   9.4500279556630E-13
(PID.TID 0000.0001) %MON dynstat_uvel_del2            =   2.3047183566026E-14
(PID.TID 0000.0001) %MON dynstat_vvel_max             =   1.9871030434384E-01
(PID.TID 0000.0001) %MON dynstat_vvel_min             =  -1.1043841725121E-01
(PID.TID 0000.0001) %MON dynstat_vvel_mean            =   7.9252287199897E-07
(PID.TID 0000.0001) %MON dynstat_vvel_sd              =   5.1901675672174E-02
(PID.TID 0000.0001) %MON dynstat_vvel_del2            =   1.5243996687205E-05
(PID.TID 0000.0001) %MON dynstat_wvel_max             =   1.2386367354101E-02
(PID.TID 0000.0001) %MON dynstat_wvel_min             =  -7.7824606184367E-03
(PID.TID 0000.0001) %MON dynstat_wvel_mean            =   3.0020920614237E-05
(PID.TID 0000.0001) %MON dynstat_wvel_sd              =   6.8043586407380E-04
(PID.TID 0000.0001) %MON dynstat_wvel_del2            =   3.9297102844203E-06
(PID.TID 0000.0001) %MON dynstat_theta_max            =   1.9439582903660E+00
(PID.TID 0000.0001) %MON dynstat_theta_min            =  -1.8515052755149E+00
(PID.TID 0000.0001) %MON dynstat_theta_mean           =   2.2523083959596E-02
(PID.TID 0000.0001) %MON dynstat_theta_sd             =   1.2764428551201E+00
(PID.TID 0000.0001) %MON dynstat_theta_del2           =   5.7847073710108E-05
(PID.TID 0000.0001) %MON dynstat_salt_max             =   3.4692815165432E+01
(PID.TID 0000.0001) %MON dynstat_salt_min             =   3.3812118061541E+01
(PID.TID 0000.0001) %MON dynstat_salt_mean            =   3.4431628352452E+01
(PID.TID 0000.0001) %MON dynstat_salt_sd              =   1.8349845634781E-01
(PID.TID 0000.0001) %MON dynstat_salt_del2            =   1.6014944528497E-05
(PID.TID 0000.0001) %MON advcfl_uvel_max              =   5.3307790387626E-13
(PID.TID 0000.0001) %MON advcfl_vvel_max              =   6.8633289251337E-02
(PID.TID 0000.0001) %MON advcfl_wvel_max              =   3.7159102062302E-01
(PID.TID 0000.0001) %MON advcfl_W_hf_max              =   3.7159102062302E-01
(PID.TID 0000.0001) %MON pe_b_mean                    =  -2.8124375212634E-01
(PID.TID 0000.0001) %MON ke_max                       =   1.9729297351990E-02
(PID.TID 0000.0001) %MON ke_mean                      =   1.3468581094958E-03
(PID.TID 0000.0001) %MON ke_vol                       =   1.3174246706485E+12
(PID.TID 0000.0001) // =======================================================
(PID.TID 0000.0001) // End MONITOR dynamic field statistics
(PID.TID 0000.0001) // =======================================================
(PID.TID 0000.0001) // =======================================================
(PID.TID 0000.0001) // Begin OBCS MONITOR field statistics
(PID.TID 0000.0001) // =======================================================
(PID.TID 0000.0001) %MON obc_N_vVel_max               =   2.5000000000000E-02
(PID.TID 0000.0001) %MON obc_N_vVel_min               =  -2.5000000000000E-02
(PID.TID 0000.0001) %MON obc_N_vVel_mean              =   1.0701309254946E-18
(PID.TID 0000.0001) %MON obc_N_vVel_sd                =   1.4595032760272E-02
(PID.TID 0000.0001) %MON obc_N_vVel_Int               =   1.1141310096718E-11
(PID.TID 0000.0001) // =======================================================
(PID.TID 0000.0001) // End OBCS MONITOR field statistics
(PID.TID 0000.0001) // =======================================================
 Computing Diagnostic #    209  SHIfwFlx     Counter:       1   Parms: SM      L1      
 Computing Diagnostic #    210  SHIhtFlx     Counter:       1   Parms: SM      L1      
 Computing Diagnostic #    215  SHIgammT     Counter:       1   Parms: SM      L1      
 Computing Diagnostic #    216  SHIgammS     Counter:       1   Parms: SM      L1      
 Computing Diagnostic #    218  SHI_mass     Counter:       1   Parms: SM      L1      
 Computing Diagnostic #    219  SHIRshel     Counter:       1   Parms: SM      L1      
 Computing Diagnostic #    194  SI_Uvel      Counter:       1   Parms: UZ      L1      
 Computing Diagnostic #    195  SI_Vvel      Counter:       1   Parms: VZ      L1      
 Computing Diagnostic #    196  SI_Thick     Counter:       1   Parms: SM      L1      
 Computing Diagnostic #    199  SI_hmask     Counter:       1   Parms: SM      L1      
 Computing Diagnostic #    198  SI_float     Counter:       1   Parms: SM      L1      
 Computing Diagnostic #    217  SHIuStar     Counter:       1   Parms: SM      L1      
(PID.TID 0000.0001) streamice solo_time_step: nIter0000011404 0.11E+00seconds
 time_step_loc    9.5129375951293768E-006
(PID.TID 0000.0001) END STREAMICE_ADVECT_THICKNESS
 cg2d: Sum(rhs),rhsMax =   1.23329048437558E-01  5.71284607217113E+01
(PID.TID 0000.0001)      cg2d_init_res =   6.75260489143398E-05
(PID.TID 0000.0001)      cg2d_iters(min,last) =      -1     115
(PID.TID 0000.0001)      cg2d_last_res =   5.53510675024854E-12
(PID.TID 0000.0001) CALLING FILL DIAGNOSTICS
(PID.TID 0000.0001) // =======================================================
(PID.TID 0000.0001) // Begin MONITOR dynamic field statistics
(PID.TID 0000.0001) // =======================================================
(PID.TID 0000.0001) %MON time_tsnumber                =                 11405
(PID.TID 0000.0001) %MON time_secondsf                =   3.4215000000000E+06
(PID.TID 0000.0001) %MON dynstat_eta_max              =   2.4714794541043E+00
(PID.TID 0000.0001) %MON dynstat_eta_min              =  -7.4981175969102E+00
(PID.TID 0000.0001) %MON dynstat_eta_mean             =  -1.3354906336640E+00
(PID.TID 0000.0001) %MON dynstat_eta_sd               =   2.4333406841844E+00
(PID.TID 0000.0001) %MON dynstat_eta_del2             =   1.8281096495184E-01
(PID.TID 0000.0001) %MON dynstat_uvel_max             =   6.7432593327915E-12
(PID.TID 0000.0001) %MON dynstat_uvel_min             =  -6.7983546132334E-12
(PID.TID 0000.0001) %MON dynstat_uvel_mean            =  -9.1397158051244E-26
(PID.TID 0000.0001) %MON dynstat_uvel_sd              =   9.4727812359264E-13
(PID.TID 0000.0001) %MON dynstat_uvel_del2            =   2.3101959785460E-14
(PID.TID 0000.0001) %MON dynstat_vvel_max             =   1.9871356898718E-01
(PID.TID 0000.0001) %MON dynstat_vvel_min             =  -1.1043595457732E-01
(PID.TID 0000.0001) %MON dynstat_vvel_mean            =   7.9232409490646E-07
(PID.TID 0000.0001) %MON dynstat_vvel_sd              =   5.1903994292855E-02
(PID.TID 0000.0001) %MON dynstat_vvel_del2            =   1.5243978868773E-05
(PID.TID 0000.0001) %MON dynstat_wvel_max             =   1.2386070283416E-02
(PID.TID 0000.0001) %MON dynstat_wvel_min             =  -7.7837105741381E-03
(PID.TID 0000.0001) %MON dynstat_wvel_mean            =   3.0020886491762E-05
(PID.TID 0000.0001) %MON dynstat_wvel_sd              =   6.8045695124370E-04
(PID.TID 0000.0001) %MON dynstat_wvel_del2            =   3.9299579249536E-06
(PID.TID 0000.0001) %MON dynstat_theta_max            =   1.9439590122554E+00
(PID.TID 0000.0001) %MON dynstat_theta_min            =  -1.8514977149670E+00
(PID.TID 0000.0001) %MON dynstat_theta_mean           =   2.2534680435105E-02
(PID.TID 0000.0001) %MON dynstat_theta_sd             =   1.2764397703528E+00
(PID.TID 0000.0001) %MON dynstat_theta_del2           =   5.7818663282830E-05
(PID.TID 0000.0001) %MON dynstat_salt_max             =   3.4692815257982E+01
(PID.TID 0000.0001) %MON dynstat_salt_min             =   3.3812118390329E+01
(PID.TID 0000.0001) %MON dynstat_salt_mean            =   3.4431629079094E+01
(PID.TID 0000.0001) %MON dynstat_salt_sd              =   1.8349905291276E-01
(PID.TID 0000.0001) %MON dynstat_salt_del2            =   1.5995683001296E-05
(PID.TID 0000.0001) %MON advcfl_uvel_max              =   5.3768337034684E-13
(PID.TID 0000.0001) %MON advcfl_vvel_max              =   6.8634416838612E-02
(PID.TID 0000.0001) %MON advcfl_wvel_max              =   3.7158210850247E-01
(PID.TID 0000.0001) %MON advcfl_W_hf_max              =   3.7158210850247E-01
(PID.TID 0000.0001) %MON pe_b_mean                    =  -2.8122674231633E-01
(PID.TID 0000.0001) %MON ke_max                       =   1.9729997818472E-02
(PID.TID 0000.0001) %MON ke_mean                      =   1.3469784821300E-03
(PID.TID 0000.0001) %MON ke_vol                       =   1.3174248284000E+12
(PID.TID 0000.0001) // =======================================================
(PID.TID 0000.0001) // End MONITOR dynamic field statistics
(PID.TID 0000.0001) // =======================================================
(PID.TID 0000.0001) // =======================================================
(PID.TID 0000.0001) // Begin OBCS MONITOR field statistics
(PID.TID 0000.0001) // =======================================================
(PID.TID 0000.0001) %MON obc_N_vVel_max               =   2.5000000000000E-02
(PID.TID 0000.0001) %MON obc_N_vVel_min               =  -2.5000000000000E-02
(PID.TID 0000.0001) %MON obc_N_vVel_mean              =   1.0701309254946E-18
(PID.TID 0000.0001) %MON obc_N_vVel_sd                =   1.4595032760272E-02
(PID.TID 0000.0001) %MON obc_N_vVel_Int               =   1.1141310096718E-11
(PID.TID 0000.0001) // =======================================================
(PID.TID 0000.0001) // End OBCS MONITOR field statistics
(PID.TID 0000.0001) // =======================================================
 Computing Diagnostic #    209  SHIfwFlx     Counter:       1   Parms: SM      L1      
 Computing Diagnostic #    210  SHIhtFlx     Counter:       1   Parms: SM      L1      
 Computing Diagnostic #    215  SHIgammT     Counter:       1   Parms: SM      L1      
 Computing Diagnostic #    216  SHIgammS     Counter:       1   Parms: SM      L1      
 Computing Diagnostic #    218  SHI_mass     Counter:       1   Parms: SM      L1      
 Computing Diagnostic #    219  SHIRshel     Counter:       1   Parms: SM      L1      
 Computing Diagnostic #    194  SI_Uvel      Counter:       1   Parms: UZ      L1      
 Computing Diagnostic #    195  SI_Vvel      Counter:       1   Parms: VZ      L1      
 Computing Diagnostic #    196  SI_Thick     Counter:       1   Parms: SM      L1      
 Computing Diagnostic #    199  SI_hmask     Counter:       1   Parms: SM      L1      
 Computing Diagnostic #    198  SI_float     Counter:       1   Parms: SM      L1      
 Computing Diagnostic #    217  SHIuStar     Counter:       1   Parms: SM      L1      
(PID.TID 0000.0001) streamice solo_time_step: nIter0000011405 0.11E+00seconds
 time_step_loc    9.5129375951293768E-006
(PID.TID 0000.0001) END STREAMICE_ADVECT_THICKNESS
 cg2d: Sum(rhs),rhsMax =   1.23321610965469E-01  5.71283465454895E+01
(PID.TID 0000.0001)      cg2d_init_res =   6.75443852529238E-05
(PID.TID 0000.0001)      cg2d_iters(min,last) =      -1     115
(PID.TID 0000.0001)      cg2d_last_res =   5.53659314124970E-12
(PID.TID 0000.0001) CALLING FILL DIAGNOSTICS
(PID.TID 0000.0001) // =======================================================
(PID.TID 0000.0001) // Begin MONITOR dynamic field statistics
(PID.TID 0000.0001) // =======================================================
(PID.TID 0000.0001) %MON time_tsnumber                =                 11406
(PID.TID 0000.0001) %MON time_secondsf                =   3.4218000000000E+06
(PID.TID 0000.0001) %MON dynstat_eta_max              =   2.4716642268038E+00
(PID.TID 0000.0001) %MON dynstat_eta_min              =  -7.4979431526438E+00
(PID.TID 0000.0001) %MON dynstat_eta_mean             =  -1.3354074267351E+00
(PID.TID 0000.0001) %MON dynstat_eta_sd               =   2.4332903648354E+00
(PID.TID 0000.0001) %MON dynstat_eta_del2             =   1.8281095504582E-01
(PID.TID 0000.0001) %MON dynstat_uvel_max             =   6.7270870973626E-12
(PID.TID 0000.0001) %MON dynstat_uvel_min             =  -6.7754038441106E-12
(PID.TID 0000.0001) %MON dynstat_uvel_mean            =  -9.1991850814123E-26
(PID.TID 0000.0001) %MON dynstat_uvel_sd              =   9.4740964989178E-13
(PID.TID 0000.0001) %MON dynstat_uvel_del2            =   2.3105354436017E-14
(PID.TID 0000.0001) %MON dynstat_vvel_max             =   1.9871688054858E-01
(PID.TID 0000.0001) %MON dynstat_vvel_min             =  -1.1043353506033E-01
(PID.TID 0000.0001) %MON dynstat_vvel_mean            =   7.5771484683459E-07
(PID.TID 0000.0001) %MON dynstat_vvel_sd              =   5.1906318791193E-02
(PID.TID 0000.0001) %MON dynstat_vvel_del2            =   1.5245535039759E-05
(PID.TID 0000.0001) %MON dynstat_wvel_max             =   1.2385763454259E-02
(PID.TID 0000.0001) %MON dynstat_wvel_min             =  -7.7849624308395E-03
(PID.TID 0000.0001) %MON dynstat_wvel_mean            =   3.0020721746211E-05
(PID.TID 0000.0001) %MON dynstat_wvel_sd              =   6.8047746613055E-04
(PID.TID 0000.0001) %MON dynstat_wvel_del2            =   3.9301839502759E-06
(PID.TID 0000.0001) %MON dynstat_theta_max            =   1.9439597341331E+00
(PID.TID 0000.0001) %MON dynstat_theta_min            =  -1.8514901425685E+00
(PID.TID 0000.0001) %MON dynstat_theta_mean           =   2.2546268440541E-02
(PID.TID 0000.0001) %MON dynstat_theta_sd             =   1.2764366906843E+00
(PID.TID 0000.0001) %MON dynstat_theta_del2           =   5.7797155573400E-05
(PID.TID 0000.0001) %MON dynstat_salt_max             =   3.4692815350530E+01
(PID.TID 0000.0001) %MON dynstat_salt_min             =   3.3812118732849E+01
(PID.TID 0000.0001) %MON dynstat_salt_mean            =   3.4431629804912E+01
(PID.TID 0000.0001) %MON dynstat_salt_sd              =   1.8349965208371E-01
(PID.TID 0000.0001) %MON dynstat_salt_del2            =   1.5980630300374E-05
(PID.TID 0000.0001) %MON advcfl_uvel_max              =   5.3561077895618E-13
(PID.TID 0000.0001) %MON advcfl_vvel_max              =   6.8635560631093E-02
(PID.TID 0000.0001) %MON advcfl_wvel_max              =   3.7157290362776E-01
(PID.TID 0000.0001) %MON advcfl_W_hf_max              =   3.7157290362776E-01
(PID.TID 0000.0001) %MON pe_b_mean                    =  -2.8120971696274E-01
(PID.TID 0000.0001) %MON ke_max                       =   1.9730705776891E-02
(PID.TID 0000.0001) %MON ke_mean                      =   1.3470991652817E-03
(PID.TID 0000.0001) %MON ke_vol                       =   1.3174249861643E+12
(PID.TID 0000.0001) // =======================================================
(PID.TID 0000.0001) // End MONITOR dynamic field statistics
(PID.TID 0000.0001) // =======================================================
(PID.TID 0000.0001) // =======================================================
(PID.TID 0000.0001) // Begin OBCS MONITOR field statistics
(PID.TID 0000.0001) // =======================================================
(PID.TID 0000.0001) %MON obc_N_vVel_max               =   2.5000000000000E-02
(PID.TID 0000.0001) %MON obc_N_vVel_min               =  -2.5000000000000E-02
(PID.TID 0000.0001) %MON obc_N_vVel_mean              =   1.0701309254946E-18
(PID.TID 0000.0001) %MON obc_N_vVel_sd                =   1.4595032760272E-02
(PID.TID 0000.0001) %MON obc_N_vVel_Int               =   1.1141310096718E-11
(PID.TID 0000.0001) // =======================================================
(PID.TID 0000.0001) // End OBCS MONITOR field statistics
(PID.TID 0000.0001) // =======================================================
 Computing Diagnostic #    209  SHIfwFlx     Counter:       1   Parms: SM      L1      
 Computing Diagnostic #    210  SHIhtFlx     Counter:       1   Parms: SM      L1      
 Computing Diagnostic #    215  SHIgammT     Counter:       1   Parms: SM      L1      
 Computing Diagnostic #    216  SHIgammS     Counter:       1   Parms: SM      L1      
 Computing Diagnostic #    218  SHI_mass     Counter:       1   Parms: SM      L1      
 Computing Diagnostic #    219  SHIRshel     Counter:       1   Parms: SM      L1      
 Computing Diagnostic #    194  SI_Uvel      Counter:       1   Parms: UZ      L1      
 Computing Diagnostic #    195  SI_Vvel      Counter:       1   Parms: VZ      L1      
 Computing Diagnostic #    196  SI_Thick     Counter:       1   Parms: SM      L1      
 Computing Diagnostic #    199  SI_hmask     Counter:       1   Parms: SM      L1      
 Computing Diagnostic #    198  SI_float     Counter:       1   Parms: SM      L1      
 Computing Diagnostic #    217  SHIuStar     Counter:       1   Parms: SM      L1      
(PID.TID 0000.0001) streamice solo_time_step: nIter0000011406 0.11E+00seconds
 time_step_loc    9.5129375951293768E-006
(PID.TID 0000.0001) END STREAMICE_ADVECT_THICKNESS
 cg2d: Sum(rhs),rhsMax =   1.23314172818342E-01  5.71282323539386E+01
(PID.TID 0000.0001)      cg2d_init_res =   6.75621810120012E-05
(PID.TID 0000.0001)      cg2d_iters(min,last) =      -1     115
(PID.TID 0000.0001)      cg2d_last_res =   5.53595321762167E-12
(PID.TID 0000.0001) CALLING FILL DIAGNOSTICS
(PID.TID 0000.0001) // =======================================================
(PID.TID 0000.0001) // Begin MONITOR dynamic field statistics
(PID.TID 0000.0001) // =======================================================
(PID.TID 0000.0001) %MON time_tsnumber                =                 11407
(PID.TID 0000.0001) %MON time_secondsf                =   3.4221000000000E+06
(PID.TID 0000.0001) %MON dynstat_eta_max              =   2.4718493395330E+00
(PID.TID 0000.0001) %MON dynstat_eta_min              =  -7.4977679531001E+00
(PID.TID 0000.0001) %MON dynstat_eta_mean             =  -1.3353242124599E+00
(PID.TID 0000.0001) %MON dynstat_eta_sd               =   2.4332399012189E+00
(PID.TID 0000.0001) %MON dynstat_eta_del2             =   1.8281094420785E-01
(PID.TID 0000.0001) %MON dynstat_uvel_max             =   6.7535904527712E-12
(PID.TID 0000.0001) %MON dynstat_uvel_min             =  -6.8034687052093E-12
(PID.TID 0000.0001) %MON dynstat_uvel_mean            =  -9.2684525157002E-26
(PID.TID 0000.0001) %MON dynstat_uvel_sd              =   9.4795538857727E-13
(PID.TID 0000.0001) %MON dynstat_uvel_del2            =   2.3118763794640E-14
(PID.TID 0000.0001) %MON dynstat_vvel_max             =   1.9872025548429E-01
(PID.TID 0000.0001) %MON dynstat_vvel_min             =  -1.1043114191273E-01
(PID.TID 0000.0001) %MON dynstat_vvel_mean            =   6.9764582869245E-07
(PID.TID 0000.0001) %MON dynstat_vvel_sd              =   5.1908644006001E-02
(PID.TID 0000.0001) %MON dynstat_vvel_del2            =   1.5247702193703E-05
(PID.TID 0000.0001) %MON dynstat_wvel_max             =   1.2385452256104E-02
(PID.TID 0000.0001) %MON dynstat_wvel_min             =  -7.7862161941905E-03
(PID.TID 0000.0001) %MON dynstat_wvel_mean            =   3.0020473992399E-05
(PID.TID 0000.0001) %MON dynstat_wvel_sd              =   6.8049786714514E-04
(PID.TID 0000.0001) %MON dynstat_wvel_del2            =   3.9304081203405E-06
(PID.TID 0000.0001) %MON dynstat_theta_max            =   1.9439604559832E+00
(PID.TID 0000.0001) %MON dynstat_theta_min            =  -1.8514825581052E+00
(PID.TID 0000.0001) %MON dynstat_theta_mean           =   2.2557847936132E-02
(PID.TID 0000.0001) %MON dynstat_theta_sd             =   1.2764336159405E+00
(PID.TID 0000.0001) %MON dynstat_theta_del2           =   5.7780899628779E-05
(PID.TID 0000.0001) %MON dynstat_salt_max             =   3.4692815443075E+01
(PID.TID 0000.0001) %MON dynstat_salt_min             =   3.3812119090136E+01
(PID.TID 0000.0001) %MON dynstat_salt_mean            =   3.4431630529880E+01
(PID.TID 0000.0001) %MON dynstat_salt_sd              =   1.8350025365125E-01
(PID.TID 0000.0001) %MON dynstat_salt_del2            =   1.5968779053658E-05
(PID.TID 0000.0001) %MON advcfl_uvel_max              =   5.3808784501260E-13
(PID.TID 0000.0001) %MON advcfl_vvel_max              =   6.8636726312659E-02
(PID.TID 0000.0001) %MON advcfl_wvel_max              =   3.7156356768311E-01
(PID.TID 0000.0001) %MON advcfl_W_hf_max              =   3.7156356768311E-01
(PID.TID 0000.0001) %MON pe_b_mean                    =  -2.8119266896873E-01
(PID.TID 0000.0001) %MON ke_max                       =   1.9731424452779E-02
(PID.TID 0000.0001) %MON ke_mean                      =   1.3472198910234E-03
(PID.TID 0000.0001) %MON ke_vol                       =   1.3174251439419E+12
(PID.TID 0000.0001) // =======================================================
(PID.TID 0000.0001) // End MONITOR dynamic field statistics
(PID.TID 0000.0001) // =======================================================
(PID.TID 0000.0001) // =======================================================
(PID.TID 0000.0001) // Begin OBCS MONITOR field statistics
(PID.TID 0000.0001) // =======================================================
(PID.TID 0000.0001) %MON obc_N_vVel_max               =   2.5000000000000E-02
(PID.TID 0000.0001) %MON obc_N_vVel_min               =  -2.5000000000000E-02
(PID.TID 0000.0001) %MON obc_N_vVel_mean              =   1.0701309254946E-18
(PID.TID 0000.0001) %MON obc_N_vVel_sd                =   1.4595032760272E-02
(PID.TID 0000.0001) %MON obc_N_vVel_Int               =   1.1141310096718E-11
(PID.TID 0000.0001) // =======================================================
(PID.TID 0000.0001) // End OBCS MONITOR field statistics
(PID.TID 0000.0001) // =======================================================
 Computing Diagnostic #    209  SHIfwFlx     Counter:       1   Parms: SM      L1      
 Computing Diagnostic #    210  SHIhtFlx     Counter:       1   Parms: SM      L1      
 Computing Diagnostic #    215  SHIgammT     Counter:       1   Parms: SM      L1      
 Computing Diagnostic #    216  SHIgammS     Counter:       1   Parms: SM      L1      
 Computing Diagnostic #    218  SHI_mass     Counter:       1   Parms: SM      L1      
 Computing Diagnostic #    219  SHIRshel     Counter:       1   Parms: SM      L1      
 Computing Diagnostic #    194  SI_Uvel      Counter:       1   Parms: UZ      L1      
 Computing Diagnostic #    195  SI_Vvel      Counter:       1   Parms: VZ      L1      
 Computing Diagnostic #    196  SI_Thick     Counter:       1   Parms: SM      L1      
 Computing Diagnostic #    199  SI_hmask     Counter:       1   Parms: SM      L1      
 Computing Diagnostic #    198  SI_float     Counter:       1   Parms: SM      L1      
 Computing Diagnostic #    217  SHIuStar     Counter:       1   Parms: SM      L1      
(PID.TID 0000.0001) streamice solo_time_step: nIter0000011407 0.11E+00seconds
 time_step_loc    9.5129375951293768E-006
(PID.TID 0000.0001) END STREAMICE_ADVECT_THICKNESS
 cg2d: Sum(rhs),rhsMax =   1.23306733953695E-01  5.71281181623867E+01
(PID.TID 0000.0001)      cg2d_init_res =   6.75769219994213E-05
(PID.TID 0000.0001)      cg2d_iters(min,last) =      -1     115
(PID.TID 0000.0001)      cg2d_last_res =   5.53413578823774E-12
(PID.TID 0000.0001) CALLING FILL DIAGNOSTICS
(PID.TID 0000.0001) // =======================================================
(PID.TID 0000.0001) // Begin MONITOR dynamic field statistics
(PID.TID 0000.0001) // =======================================================
(PID.TID 0000.0001) %MON time_tsnumber                =                 11408
(PID.TID 0000.0001) %MON time_secondsf                =   3.4224000000000E+06
(PID.TID 0000.0001) %MON dynstat_eta_max              =   2.4720347856986E+00
(PID.TID 0000.0001) %MON dynstat_eta_min              =  -7.4975918091648E+00
(PID.TID 0000.0001) %MON dynstat_eta_mean             =  -1.3352409907370E+00
(PID.TID 0000.0001) %MON dynstat_eta_sd               =   2.4331892689333E+00
(PID.TID 0000.0001) %MON dynstat_eta_del2             =   1.8281093255486E-01
(PID.TID 0000.0001) %MON dynstat_uvel_max             =   6.7572456756791E-12
(PID.TID 0000.0001) %MON dynstat_uvel_min             =  -6.7818378390288E-12
(PID.TID 0000.0001) %MON dynstat_uvel_mean            =  -9.2502120644866E-26
(PID.TID 0000.0001) %MON dynstat_uvel_sd              =   9.4757814993062E-13
(PID.TID 0000.0001) %MON dynstat_uvel_del2            =   2.3109887576279E-14
(PID.TID 0000.0001) %MON dynstat_vvel_max             =   1.9872371456229E-01
(PID.TID 0000.0001) %MON dynstat_vvel_min             =  -1.1042875741584E-01
(PID.TID 0000.0001) %MON dynstat_vvel_mean            =   6.2658914156653E-07
(PID.TID 0000.0001) %MON dynstat_vvel_sd              =   5.1910967426569E-02
(PID.TID 0000.0001) %MON dynstat_vvel_del2            =   1.5249759669183E-05
(PID.TID 0000.0001) %MON dynstat_wvel_max             =   1.2385141608688E-02
(PID.TID 0000.0001) %MON dynstat_wvel_min             =  -7.7874714424159E-03
(PID.TID 0000.0001) %MON dynstat_wvel_mean            =   3.0020191355467E-05
(PID.TID 0000.0001) %MON dynstat_wvel_sd              =   6.8051827574898E-04
(PID.TID 0000.0001) %MON dynstat_wvel_del2            =   3.9306306566522E-06
(PID.TID 0000.0001) %MON dynstat_theta_max            =   1.9439611777898E+00
(PID.TID 0000.0001) %MON dynstat_theta_min            =  -1.8514749614153E+00
(PID.TID 0000.0001) %MON dynstat_theta_mean           =   2.2569418902970E-02
(PID.TID 0000.0001) %MON dynstat_theta_sd             =   1.2764305459604E+00
(PID.TID 0000.0001) %MON dynstat_theta_del2           =   5.7768654284635E-05
(PID.TID 0000.0001) %MON dynstat_salt_max             =   3.4692815535614E+01
(PID.TID 0000.0001) %MON dynstat_salt_min             =   3.3812119462748E+01
(PID.TID 0000.0001) %MON dynstat_salt_mean            =   3.4431631253977E+01
(PID.TID 0000.0001) %MON dynstat_salt_sd              =   1.8350085743460E-01
(PID.TID 0000.0001) %MON dynstat_salt_del2            =   1.5959370979971E-05
(PID.TID 0000.0001) %MON advcfl_uvel_max              =   5.3611940059841E-13
(PID.TID 0000.0001) %MON advcfl_vvel_max              =   6.8637921056442E-02
(PID.TID 0000.0001) %MON advcfl_wvel_max              =   3.7155424826064E-01
(PID.TID 0000.0001) %MON advcfl_W_hf_max              =   3.7155424826064E-01
(PID.TID 0000.0001) %MON pe_b_mean                    =  -2.8117559536935E-01
(PID.TID 0000.0001) %MON ke_max                       =   1.9732157933528E-02
(PID.TID 0000.0001) %MON ke_mean                      =   1.3473405290067E-03
(PID.TID 0000.0001) %MON ke_vol                       =   1.3174253017334E+12
(PID.TID 0000.0001) // =======================================================
(PID.TID 0000.0001) // End MONITOR dynamic field statistics
(PID.TID 0000.0001) // =======================================================
(PID.TID 0000.0001) // =======================================================
(PID.TID 0000.0001) // Begin OBCS MONITOR field statistics
(PID.TID 0000.0001) // =======================================================
(PID.TID 0000.0001) %MON obc_N_vVel_max               =   2.5000000000000E-02
(PID.TID 0000.0001) %MON obc_N_vVel_min               =  -2.5000000000000E-02
(PID.TID 0000.0001) %MON obc_N_vVel_mean              =   1.0701309254946E-18
(PID.TID 0000.0001) %MON obc_N_vVel_sd                =   1.4595032760272E-02
(PID.TID 0000.0001) %MON obc_N_vVel_Int               =   1.1141310096718E-11
(PID.TID 0000.0001) // =======================================================
(PID.TID 0000.0001) // End OBCS MONITOR field statistics
(PID.TID 0000.0001) // =======================================================
 Computing Diagnostic #    209  SHIfwFlx     Counter:       1   Parms: SM      L1      
 Computing Diagnostic #    210  SHIhtFlx     Counter:       1   Parms: SM      L1      
 Computing Diagnostic #    215  SHIgammT     Counter:       1   Parms: SM      L1      
 Computing Diagnostic #    216  SHIgammS     Counter:       1   Parms: SM      L1      
 Computing Diagnostic #    218  SHI_mass     Counter:       1   Parms: SM      L1      
 Computing Diagnostic #    219  SHIRshel     Counter:       1   Parms: SM      L1      
 Computing Diagnostic #    194  SI_Uvel      Counter:       1   Parms: UZ      L1      
 Computing Diagnostic #    195  SI_Vvel      Counter:       1   Parms: VZ      L1      
 Computing Diagnostic #    196  SI_Thick     Counter:       1   Parms: SM      L1      
 Computing Diagnostic #    199  SI_hmask     Counter:       1   Parms: SM      L1      
 Computing Diagnostic #    198  SI_float     Counter:       1   Parms: SM      L1      
 Computing Diagnostic #    217  SHIuStar     Counter:       1   Parms: SM      L1      
(PID.TID 0000.0001) streamice solo_time_step: nIter0000011408 0.11E+00seconds
 time_step_loc    9.5129375951293768E-006
(PID.TID 0000.0001) END STREAMICE_ADVECT_THICKNESS
 cg2d: Sum(rhs),rhsMax =   1.23299294355781E-01  5.71280039774636E+01
(PID.TID 0000.0001)      cg2d_init_res =   6.75893978076724E-05
(PID.TID 0000.0001)      cg2d_iters(min,last) =      -1     115
(PID.TID 0000.0001)      cg2d_last_res =   5.53235022170451E-12
(PID.TID 0000.0001) CALLING FILL DIAGNOSTICS
(PID.TID 0000.0001) // =======================================================
(PID.TID 0000.0001) // Begin MONITOR dynamic field statistics
(PID.TID 0000.0001) // =======================================================
(PID.TID 0000.0001) %MON time_tsnumber                =                 11409
(PID.TID 0000.0001) %MON time_secondsf                =   3.4227000000000E+06
(PID.TID 0000.0001) %MON dynstat_eta_max              =   2.4722205493609E+00
(PID.TID 0000.0001) %MON dynstat_eta_min              =  -7.4974147080798E+00
(PID.TID 0000.0001) %MON dynstat_eta_mean             =  -1.3351577615508E+00
(PID.TID 0000.0001) %MON dynstat_eta_sd               =   2.4331384762345E+00
(PID.TID 0000.0001) %MON dynstat_eta_del2             =   1.8281092019225E-01
(PID.TID 0000.0001) %MON dynstat_uvel_max             =   6.7583302636877E-12
(PID.TID 0000.0001) %MON dynstat_uvel_min             =  -6.7983963491878E-12
(PID.TID 0000.0001) %MON dynstat_uvel_mean            =  -9.1911526066085E-26
(PID.TID 0000.0001) %MON dynstat_uvel_sd              =   9.4759511709928E-13
(PID.TID 0000.0001) %MON dynstat_uvel_del2            =   2.3110320151436E-14
(PID.TID 0000.0001) %MON dynstat_vvel_max             =   1.9872727915339E-01
(PID.TID 0000.0001) %MON dynstat_vvel_min             =  -1.1042636396982E-01
(PID.TID 0000.0001) %MON dynstat_vvel_mean            =   5.5861143915988E-07
(PID.TID 0000.0001) %MON dynstat_vvel_sd              =   5.1913287262165E-02
(PID.TID 0000.0001) %MON dynstat_vvel_del2            =   1.5251582425346E-05
(PID.TID 0000.0001) %MON dynstat_wvel_max             =   1.2384835796297E-02
(PID.TID 0000.0001) %MON dynstat_wvel_min             =  -7.7887277076423E-03
(PID.TID 0000.0001) %MON dynstat_wvel_mean            =   3.0019921302992E-05
(PID.TID 0000.0001) %MON dynstat_wvel_sd              =   6.8053889437653E-04
(PID.TID 0000.0001) %MON dynstat_wvel_del2            =   3.9308569709502E-06
(PID.TID 0000.0001) %MON dynstat_theta_max            =   1.9439618995390E+00
(PID.TID 0000.0001) %MON dynstat_theta_min            =  -1.8514673524060E+00
(PID.TID 0000.0001) %MON dynstat_theta_mean           =   2.2580981333556E-02
(PID.TID 0000.0001) %MON dynstat_theta_sd             =   1.2764274806091E+00
(PID.TID 0000.0001) %MON dynstat_theta_del2           =   5.7759494312348E-05
(PID.TID 0000.0001) %MON dynstat_salt_max             =   3.4692815628146E+01
(PID.TID 0000.0001) %MON dynstat_salt_min             =   3.3812119850792E+01
(PID.TID 0000.0001) %MON dynstat_salt_mean            =   3.4431631977194E+01
(PID.TID 0000.0001) %MON dynstat_salt_sd              =   1.8350146328761E-01
(PID.TID 0000.0001) %MON dynstat_salt_del2            =   1.5951840872373E-05
(PID.TID 0000.0001) %MON advcfl_uvel_max              =   5.3768667125271E-13
(PID.TID 0000.0001) %MON advcfl_vvel_max              =   6.8639152243787E-02
(PID.TID 0000.0001) %MON advcfl_wvel_max              =   3.7154507388890E-01
(PID.TID 0000.0001) %MON advcfl_W_hf_max              =   3.7154507388890E-01
(PID.TID 0000.0001) %MON pe_b_mean                    =  -2.8115849727361E-01
(PID.TID 0000.0001) %MON ke_max                       =   1.9732910425230E-02
(PID.TID 0000.0001) %MON ke_mean                      =   1.3474609862428E-03
(PID.TID 0000.0001) %MON ke_vol                       =   1.3174254595390E+12
(PID.TID 0000.0001) // =======================================================
(PID.TID 0000.0001) // End MONITOR dynamic field statistics
(PID.TID 0000.0001) // =======================================================
(PID.TID 0000.0001) // =======================================================
(PID.TID 0000.0001) // Begin OBCS MONITOR field statistics
(PID.TID 0000.0001) // =======================================================
(PID.TID 0000.0001) %MON obc_N_vVel_max               =   2.5000000000000E-02
(PID.TID 0000.0001) %MON obc_N_vVel_min               =  -2.5000000000000E-02
(PID.TID 0000.0001) %MON obc_N_vVel_mean              =   1.0701309254946E-18
(PID.TID 0000.0001) %MON obc_N_vVel_sd                =   1.4595032760272E-02
(PID.TID 0000.0001) %MON obc_N_vVel_Int               =   1.1141310096718E-11
(PID.TID 0000.0001) // =======================================================
(PID.TID 0000.0001) // End OBCS MONITOR field statistics
(PID.TID 0000.0001) // =======================================================
 Computing Diagnostic #    209  SHIfwFlx     Counter:       1   Parms: SM      L1      
 Computing Diagnostic #    210  SHIhtFlx     Counter:       1   Parms: SM      L1      
 Computing Diagnostic #    215  SHIgammT     Counter:       1   Parms: SM      L1      
 Computing Diagnostic #    216  SHIgammS     Counter:       1   Parms: SM      L1      
 Computing Diagnostic #    218  SHI_mass     Counter:       1   Parms: SM      L1      
 Computing Diagnostic #    219  SHIRshel     Counter:       1   Parms: SM      L1      
 Computing Diagnostic #    194  SI_Uvel      Counter:       1   Parms: UZ      L1      
 Computing Diagnostic #    195  SI_Vvel      Counter:       1   Parms: VZ      L1      
 Computing Diagnostic #    196  SI_Thick     Counter:       1   Parms: SM      L1      
 Computing Diagnostic #    199  SI_hmask     Counter:       1   Parms: SM      L1      
 Computing Diagnostic #    198  SI_float     Counter:       1   Parms: SM      L1      
 Computing Diagnostic #    217  SHIuStar     Counter:       1   Parms: SM      L1      
(PID.TID 0000.0001) streamice solo_time_step: nIter0000011409 0.11E+00seconds
 time_step_loc    9.5129375951293768E-006
(PID.TID 0000.0001) END STREAMICE_ADVECT_THICKNESS
 cg2d: Sum(rhs),rhsMax =   1.23291854033768E-01  5.71278897985470E+01
(PID.TID 0000.0001)      cg2d_init_res =   6.75992747165581E-05
(PID.TID 0000.0001)      cg2d_iters(min,last) =      -1     115
(PID.TID 0000.0001)      cg2d_last_res =   5.53097933409358E-12
(PID.TID 0000.0001) CALLING FILL DIAGNOSTICS
(PID.TID 0000.0001) // =======================================================
(PID.TID 0000.0001) // Begin MONITOR dynamic field statistics
(PID.TID 0000.0001) // =======================================================
(PID.TID 0000.0001) %MON time_tsnumber                =                 11410
(PID.TID 0000.0001) %MON time_secondsf                =   3.4230000000000E+06
(PID.TID 0000.0001) %MON dynstat_eta_max              =   2.4724065881929E+00
(PID.TID 0000.0001) %MON dynstat_eta_min              =  -7.4972367311712E+00
(PID.TID 0000.0001) %MON dynstat_eta_mean             =  -1.3350745249860E+00
(PID.TID 0000.0001) %MON dynstat_eta_sd               =   2.4330875558877E+00
(PID.TID 0000.0001) %MON dynstat_eta_del2             =   1.8281090729183E-01
(PID.TID 0000.0001) %MON dynstat_uvel_max             =   6.7517302562077E-12
(PID.TID 0000.0001) %MON dynstat_uvel_min             =  -6.7924533153841E-12
(PID.TID 0000.0001) %MON dynstat_uvel_mean            =  -9.2247268940802E-26
(PID.TID 0000.0001) %MON dynstat_uvel_sd              =   9.4736228618960E-13
(PID.TID 0000.0001) %MON dynstat_uvel_del2            =   2.3105032366018E-14
(PID.TID 0000.0001) %MON dynstat_vvel_max             =   1.9873096701065E-01
(PID.TID 0000.0001) %MON dynstat_vvel_min             =  -1.1042394747475E-01
(PID.TID 0000.0001) %MON dynstat_vvel_mean            =   5.0459104147101E-07
(PID.TID 0000.0001) %MON dynstat_vvel_sd              =   5.1915602356161E-02
(PID.TID 0000.0001) %MON dynstat_vvel_del2            =   1.5253109440378E-05
(PID.TID 0000.0001) %MON dynstat_wvel_max             =   1.2384537674141E-02
(PID.TID 0000.0001) %MON dynstat_wvel_min             =  -7.7899847017694E-03
(PID.TID 0000.0001) %MON dynstat_wvel_mean            =   3.0019704192806E-05
(PID.TID 0000.0001) %MON dynstat_wvel_sd              =   6.8055983396700E-04
(PID.TID 0000.0001) %MON dynstat_wvel_del2            =   3.9310883889378E-06
(PID.TID 0000.0001) %MON dynstat_theta_max            =   1.9439626212191E+00
(PID.TID 0000.0001) %MON dynstat_theta_min            =  -1.8514597310342E+00
(PID.TID 0000.0001) %MON dynstat_theta_mean           =   2.2592535240495E-02
(PID.TID 0000.0001) %MON dynstat_theta_sd             =   1.2764244197622E+00
(PID.TID 0000.0001) %MON dynstat_theta_del2           =   5.7752726398521E-05
(PID.TID 0000.0001) %MON dynstat_salt_max             =   3.4692815720669E+01
(PID.TID 0000.0001) %MON dynstat_salt_min             =   3.3812120254040E+01
(PID.TID 0000.0001) %MON dynstat_salt_mean            =   3.4431632699526E+01
(PID.TID 0000.0001) %MON dynstat_salt_sd              =   1.8350207107545E-01
(PID.TID 0000.0001) %MON dynstat_salt_del2            =   1.5945765175509E-05
(PID.TID 0000.0001) %MON advcfl_uvel_max              =   5.3695857767043E-13
(PID.TID 0000.0001) %MON advcfl_vvel_max              =   6.8640426006489E-02
(PID.TID 0000.0001) %MON advcfl_wvel_max              =   3.7153613022422E-01
(PID.TID 0000.0001) %MON advcfl_W_hf_max              =   3.7153613022422E-01
(PID.TID 0000.0001) %MON pe_b_mean                    =  -2.8114137925316E-01
(PID.TID 0000.0001) %MON ke_max                       =   1.9733685405776E-02
(PID.TID 0000.0001) %MON ke_mean                      =   1.3475812026498E-03
(PID.TID 0000.0001) %MON ke_vol                       =   1.3174256173587E+12
(PID.TID 0000.0001) // =======================================================
(PID.TID 0000.0001) // End MONITOR dynamic field statistics
(PID.TID 0000.0001) // =======================================================
(PID.TID 0000.0001) // =======================================================
(PID.TID 0000.0001) // Begin OBCS MONITOR field statistics
(PID.TID 0000.0001) // =======================================================
(PID.TID 0000.0001) %MON obc_N_vVel_max               =   2.5000000000000E-02
(PID.TID 0000.0001) %MON obc_N_vVel_min               =  -2.5000000000000E-02
(PID.TID 0000.0001) %MON obc_N_vVel_mean              =   1.0701309254946E-18
(PID.TID 0000.0001) %MON obc_N_vVel_sd                =   1.4595032760272E-02
(PID.TID 0000.0001) %MON obc_N_vVel_Int               =   1.1141310096718E-11
(PID.TID 0000.0001) // =======================================================
(PID.TID 0000.0001) // End OBCS MONITOR field statistics
(PID.TID 0000.0001) // =======================================================
 Computing Diagnostic #    209  SHIfwFlx     Counter:       1   Parms: SM      L1      
 Computing Diagnostic #    210  SHIhtFlx     Counter:       1   Parms: SM      L1      
 Computing Diagnostic #    215  SHIgammT     Counter:       1   Parms: SM      L1      
 Computing Diagnostic #    216  SHIgammS     Counter:       1   Parms: SM      L1      
 Computing Diagnostic #    218  SHI_mass     Counter:       1   Parms: SM      L1      
 Computing Diagnostic #    219  SHIRshel     Counter:       1   Parms: SM      L1      
 Computing Diagnostic #    194  SI_Uvel      Counter:       1   Parms: UZ      L1      
 Computing Diagnostic #    195  SI_Vvel      Counter:       1   Parms: VZ      L1      
 Computing Diagnostic #    196  SI_Thick     Counter:       1   Parms: SM      L1      
 Computing Diagnostic #    199  SI_hmask     Counter:       1   Parms: SM      L1      
 Computing Diagnostic #    198  SI_float     Counter:       1   Parms: SM      L1      
 Computing Diagnostic #    217  SHIuStar     Counter:       1   Parms: SM      L1      
(PID.TID 0000.0001) streamice solo_time_step: nIter0000011410 0.11E+00seconds
 time_step_loc    9.5129375951293768E-006
(PID.TID 0000.0001) END STREAMICE_ADVECT_THICKNESS
 cg2d: Sum(rhs),rhsMax =   1.23284413009305E-01  5.71277756216199E+01
(PID.TID 0000.0001)      cg2d_init_res =   6.76068753025493E-05
(PID.TID 0000.0001)      cg2d_iters(min,last) =      -1     115
(PID.TID 0000.0001)      cg2d_last_res =   5.53016680286081E-12
(PID.TID 0000.0001) CALLING FILL DIAGNOSTICS
(PID.TID 0000.0001) // =======================================================
(PID.TID 0000.0001) // Begin MONITOR dynamic field statistics
(PID.TID 0000.0001) // =======================================================
(PID.TID 0000.0001) %MON time_tsnumber                =                 11411
(PID.TID 0000.0001) %MON time_secondsf                =   3.4233000000000E+06
(PID.TID 0000.0001) %MON dynstat_eta_max              =   2.4725928225611E+00
(PID.TID 0000.0001) %MON dynstat_eta_min              =  -7.4970580027213E+00
(PID.TID 0000.0001) %MON dynstat_eta_mean             =  -1.3349912811834E+00
(PID.TID 0000.0001) %MON dynstat_eta_sd               =   2.4330365541178E+00
(PID.TID 0000.0001) %MON dynstat_eta_del2             =   1.8281089401501E-01
(PID.TID 0000.0001) %MON dynstat_uvel_max             =   6.7494314955078E-12
(PID.TID 0000.0001) %MON dynstat_uvel_min             =  -6.8012486708436E-12
(PID.TID 0000.0001) %MON dynstat_uvel_mean            =  -9.3966811717450E-26
(PID.TID 0000.0001) %MON dynstat_uvel_sd              =   9.4740879413285E-13
(PID.TID 0000.0001) %MON dynstat_uvel_del2            =   2.3106487277792E-14
(PID.TID 0000.0001) %MON dynstat_vvel_max             =   1.9873478894934E-01
(PID.TID 0000.0001) %MON dynstat_vvel_min             =  -1.1042149982553E-01
(PID.TID 0000.0001) %MON dynstat_vvel_mean            =   4.7069873953733E-07
(PID.TID 0000.0001) %MON dynstat_vvel_sd              =   5.1917911896930E-02
(PID.TID 0000.0001) %MON dynstat_vvel_del2            =   1.5254374201784E-05
(PID.TID 0000.0001) %MON dynstat_wvel_max             =   1.2384248235962E-02
(PID.TID 0000.0001) %MON dynstat_wvel_min             =  -7.7912423450396E-03
(PID.TID 0000.0001) %MON dynstat_wvel_mean            =   3.0019565611108E-05
(PID.TID 0000.0001) %MON dynstat_wvel_sd              =   6.8058115054509E-04
(PID.TID 0000.0001) %MON dynstat_wvel_del2            =   3.9313256051143E-06
(PID.TID 0000.0001) %MON dynstat_theta_max            =   1.9439633428209E+00
(PID.TID 0000.0001) %MON dynstat_theta_min            =  -1.8514520972782E+00
(PID.TID 0000.0001) %MON dynstat_theta_mean           =   2.2604080648520E-02
(PID.TID 0000.0001) %MON dynstat_theta_sd             =   1.2764213633046E+00
(PID.TID 0000.0001) %MON dynstat_theta_del2           =   5.7747830179969E-05
(PID.TID 0000.0001) %MON dynstat_salt_max             =   3.4692815813182E+01
(PID.TID 0000.0001) %MON dynstat_salt_min             =   3.3812120672160E+01
(PID.TID 0000.0001) %MON dynstat_salt_mean            =   3.4431633420979E+01
(PID.TID 0000.0001) %MON dynstat_salt_sd              =   1.8350268066897E-01
(PID.TID 0000.0001) %MON dynstat_salt_del2            =   1.5940826494381E-05
(PID.TID 0000.0001) %MON advcfl_uvel_max              =   5.3791226200348E-13
(PID.TID 0000.0001) %MON advcfl_vvel_max              =   6.8641746080073E-02
(PID.TID 0000.0001) %MON advcfl_wvel_max              =   3.7152744707886E-01
(PID.TID 0000.0001) %MON advcfl_W_hf_max              =   3.7152744707886E-01
(PID.TID 0000.0001) %MON pe_b_mean                    =  -2.8112424807723E-01
(PID.TID 0000.0001) %MON ke_max                       =   1.9734484989368E-02
(PID.TID 0000.0001) %MON ke_mean                      =   1.3477011360473E-03
(PID.TID 0000.0001) %MON ke_vol                       =   1.3174257751925E+12
(PID.TID 0000.0001) // =======================================================
(PID.TID 0000.0001) // End MONITOR dynamic field statistics
(PID.TID 0000.0001) // =======================================================
(PID.TID 0000.0001) // =======================================================
(PID.TID 0000.0001) // Begin OBCS MONITOR field statistics
(PID.TID 0000.0001) // =======================================================
(PID.TID 0000.0001) %MON obc_N_vVel_max               =   2.5000000000000E-02
(PID.TID 0000.0001) %MON obc_N_vVel_min               =  -2.5000000000000E-02
(PID.TID 0000.0001) %MON obc_N_vVel_mean              =   1.0701309254946E-18
(PID.TID 0000.0001) %MON obc_N_vVel_sd                =   1.4595032760272E-02
(PID.TID 0000.0001) %MON obc_N_vVel_Int               =   1.1141310096718E-11
(PID.TID 0000.0001) // =======================================================
(PID.TID 0000.0001) // End OBCS MONITOR field statistics
(PID.TID 0000.0001) // =======================================================
 Computing Diagnostic #    209  SHIfwFlx     Counter:       1   Parms: SM      L1      
 Computing Diagnostic #    210  SHIhtFlx     Counter:       1   Parms: SM      L1      
 Computing Diagnostic #    215  SHIgammT     Counter:       1   Parms: SM      L1      
 Computing Diagnostic #    216  SHIgammS     Counter:       1   Parms: SM      L1      
 Computing Diagnostic #    218  SHI_mass     Counter:       1   Parms: SM      L1      
 Computing Diagnostic #    219  SHIRshel     Counter:       1   Parms: SM      L1      
 Computing Diagnostic #    194  SI_Uvel      Counter:       1   Parms: UZ      L1      
 Computing Diagnostic #    195  SI_Vvel      Counter:       1   Parms: VZ      L1      
 Computing Diagnostic #    196  SI_Thick     Counter:       1   Parms: SM      L1      
 Computing Diagnostic #    199  SI_hmask     Counter:       1   Parms: SM      L1      
 Computing Diagnostic #    198  SI_float     Counter:       1   Parms: SM      L1      
 Computing Diagnostic #    217  SHIuStar     Counter:       1   Parms: SM      L1      
(PID.TID 0000.0001) streamice solo_time_step: nIter0000011411 0.11E+00seconds
 time_step_loc    9.5129375951293768E-006
(PID.TID 0000.0001) END STREAMICE_ADVECT_THICKNESS
 cg2d: Sum(rhs),rhsMax =   1.23276971308312E-01  5.71276614424458E+01
(PID.TID 0000.0001)      cg2d_init_res =   6.76123687992880E-05
(PID.TID 0000.0001)      cg2d_iters(min,last) =      -1     115
(PID.TID 0000.0001)      cg2d_last_res =   5.53002225334918E-12
(PID.TID 0000.0001) CALLING FILL DIAGNOSTICS
(PID.TID 0000.0001) // =======================================================
(PID.TID 0000.0001) // Begin MONITOR dynamic field statistics
(PID.TID 0000.0001) // =======================================================
(PID.TID 0000.0001) %MON time_tsnumber                =                 11412
(PID.TID 0000.0001) %MON time_secondsf                =   3.4236000000000E+06
(PID.TID 0000.0001) %MON dynstat_eta_max              =   2.4727791397375E+00
(PID.TID 0000.0001) %MON dynstat_eta_min              =  -7.4968786450573E+00
(PID.TID 0000.0001) %MON dynstat_eta_mean             =  -1.3349080303244E+00
(PID.TID 0000.0001) %MON dynstat_eta_sd               =   2.4329855192400E+00
(PID.TID 0000.0001) %MON dynstat_eta_del2             =   1.8281088051776E-01
(PID.TID 0000.0001) %MON dynstat_uvel_max             =   6.7501294799070E-12
(PID.TID 0000.0001) %MON dynstat_uvel_min             =  -6.7993286004140E-12
(PID.TID 0000.0001) %MON dynstat_uvel_mean            =  -9.4222798172194E-26
(PID.TID 0000.0001) %MON dynstat_uvel_sd              =   9.4739776584317E-13
(PID.TID 0000.0001) %MON dynstat_uvel_del2            =   2.3105886510587E-14
(PID.TID 0000.0001) %MON dynstat_vvel_max             =   1.9873874764678E-01
(PID.TID 0000.0001) %MON dynstat_vvel_min             =  -1.1041901916020E-01
(PID.TID 0000.0001) %MON dynstat_vvel_mean            =   4.5848648099786E-07
(PID.TID 0000.0001) %MON dynstat_vvel_sd              =   5.1920215310037E-02
(PID.TID 0000.0001) %MON dynstat_vvel_del2            =   1.5255418491319E-05
(PID.TID 0000.0001) %MON dynstat_wvel_max             =   1.2383966797876E-02
(PID.TID 0000.0001) %MON dynstat_wvel_min             =  -7.7925006881319E-03
(PID.TID 0000.0001) %MON dynstat_wvel_mean            =   3.0019513793949E-05
(PID.TID 0000.0001) %MON dynstat_wvel_sd              =   6.8060282914014E-04
(PID.TID 0000.0001) %MON dynstat_wvel_del2            =   3.9315679013081E-06
(PID.TID 0000.0001) %MON dynstat_theta_max            =   1.9439640643357E+00
(PID.TID 0000.0001) %MON dynstat_theta_min            =  -1.8514444511170E+00
(PID.TID 0000.0001) %MON dynstat_theta_mean           =   2.2615617586888E-02
(PID.TID 0000.0001) %MON dynstat_theta_sd             =   1.2764183111314E+00
(PID.TID 0000.0001) %MON dynstat_theta_del2           =   5.7744411095173E-05
(PID.TID 0000.0001) %MON dynstat_salt_max             =   3.4692815905684E+01
(PID.TID 0000.0001) %MON dynstat_salt_min             =   3.3812121104901E+01
(PID.TID 0000.0001) %MON dynstat_salt_mean            =   3.4431634141565E+01
(PID.TID 0000.0001) %MON dynstat_salt_sd              =   1.8350329194300E-01
(PID.TID 0000.0001) %MON dynstat_salt_del2            =   1.5936784918627E-05
(PID.TID 0000.0001) %MON advcfl_uvel_max              =   5.3750208427980E-13
(PID.TID 0000.0001) %MON advcfl_vvel_max              =   6.8643113389268E-02
(PID.TID 0000.0001) %MON advcfl_wvel_max              =   3.7151900393627E-01
(PID.TID 0000.0001) %MON advcfl_W_hf_max              =   3.7151900393627E-01
(PID.TID 0000.0001) %MON pe_b_mean                    =  -2.8110711122783E-01
(PID.TID 0000.0001) %MON ke_max                       =   1.9735309694759E-02
(PID.TID 0000.0001) %MON ke_mean                      =   1.3478207565634E-03
(PID.TID 0000.0001) %MON ke_vol                       =   1.3174259330400E+12
(PID.TID 0000.0001) // =======================================================
(PID.TID 0000.0001) // End MONITOR dynamic field statistics
(PID.TID 0000.0001) // =======================================================
(PID.TID 0000.0001) // =======================================================
(PID.TID 0000.0001) // Begin OBCS MONITOR field statistics
(PID.TID 0000.0001) // =======================================================
(PID.TID 0000.0001) %MON obc_N_vVel_max               =   2.5000000000000E-02
(PID.TID 0000.0001) %MON obc_N_vVel_min               =  -2.5000000000000E-02
(PID.TID 0000.0001) %MON obc_N_vVel_mean              =   1.0701309254946E-18
(PID.TID 0000.0001) %MON obc_N_vVel_sd                =   1.4595032760272E-02
(PID.TID 0000.0001) %MON obc_N_vVel_Int               =   1.1141310096718E-11
(PID.TID 0000.0001) // =======================================================
(PID.TID 0000.0001) // End OBCS MONITOR field statistics
(PID.TID 0000.0001) // =======================================================
 Computing Diagnostic #    209  SHIfwFlx     Counter:       1   Parms: SM      L1      
 Computing Diagnostic #    210  SHIhtFlx     Counter:       1   Parms: SM      L1      
 Computing Diagnostic #    215  SHIgammT     Counter:       1   Parms: SM      L1      
 Computing Diagnostic #    216  SHIgammS     Counter:       1   Parms: SM      L1      
 Computing Diagnostic #    218  SHI_mass     Counter:       1   Parms: SM      L1      
 Computing Diagnostic #    219  SHIRshel     Counter:       1   Parms: SM      L1      
 Computing Diagnostic #    194  SI_Uvel      Counter:       1   Parms: UZ      L1      
 Computing Diagnostic #    195  SI_Vvel      Counter:       1   Parms: VZ      L1      
 Computing Diagnostic #    196  SI_Thick     Counter:       1   Parms: SM      L1      
 Computing Diagnostic #    199  SI_hmask     Counter:       1   Parms: SM      L1      
 Computing Diagnostic #    198  SI_float     Counter:       1   Parms: SM      L1      
 Computing Diagnostic #    217  SHIuStar     Counter:       1   Parms: SM      L1      
(PID.TID 0000.0001) streamice solo_time_step: nIter0000011412 0.11E+00seconds
 time_step_loc    9.5129375951293768E-006
(PID.TID 0000.0001) END STREAMICE_ADVECT_THICKNESS
 cg2d: Sum(rhs),rhsMax =   1.23269528952941E-01  5.71275472597317E+01
(PID.TID 0000.0001)      cg2d_init_res =   6.76160261901798E-05
(PID.TID 0000.0001)      cg2d_iters(min,last) =      -1     115
(PID.TID 0000.0001)      cg2d_last_res =   5.53042110448997E-12
(PID.TID 0000.0001) CALLING FILL DIAGNOSTICS
(PID.TID 0000.0001) // =======================================================
(PID.TID 0000.0001) // Begin MONITOR dynamic field statistics
(PID.TID 0000.0001) // =======================================================
(PID.TID 0000.0001) %MON time_tsnumber                =                 11413
(PID.TID 0000.0001) %MON time_secondsf                =   3.4239000000000E+06
(PID.TID 0000.0001) %MON dynstat_eta_max              =   2.4729654138860E+00
(PID.TID 0000.0001) %MON dynstat_eta_min              =  -7.4966987566018E+00
(PID.TID 0000.0001) %MON dynstat_eta_mean             =  -1.3348247726189E+00
(PID.TID 0000.0001) %MON dynstat_eta_sd               =   2.4329344932375E+00
(PID.TID 0000.0001) %MON dynstat_eta_del2             =   1.8281086693496E-01
(PID.TID 0000.0001) %MON dynstat_uvel_max             =   6.7587118482860E-12
(PID.TID 0000.0001) %MON dynstat_uvel_min             =  -6.7976233613962E-12
(PID.TID 0000.0001) %MON dynstat_uvel_mean            =  -9.3827788920395E-26
(PID.TID 0000.0001) %MON dynstat_uvel_sd              =   9.4748172684993E-13
(PID.TID 0000.0001) %MON dynstat_uvel_del2            =   2.3107887315438E-14
(PID.TID 0000.0001) %MON dynstat_vvel_max             =   1.9874283817436E-01
(PID.TID 0000.0001) %MON dynstat_vvel_min             =  -1.1041650848470E-01
(PID.TID 0000.0001) %MON dynstat_vvel_mean            =   4.6574370889312E-07
(PID.TID 0000.0001) %MON dynstat_vvel_sd              =   5.1922512176339E-02
(PID.TID 0000.0001) %MON dynstat_vvel_del2            =   1.5256288262000E-05
(PID.TID 0000.0001) %MON dynstat_wvel_max             =   1.2383691528522E-02
(PID.TID 0000.0001) %MON dynstat_wvel_min             =  -7.7937598379090E-03
(PID.TID 0000.0001) %MON dynstat_wvel_mean            =   3.0019541390163E-05
(PID.TID 0000.0001) %MON dynstat_wvel_sd              =   6.8062480713587E-04
(PID.TID 0000.0001) %MON dynstat_wvel_del2            =   3.9318140558949E-06
(PID.TID 0000.0001) %MON dynstat_theta_max            =   1.9439647857551E+00
(PID.TID 0000.0001) %MON dynstat_theta_min            =  -1.8514367925189E+00
(PID.TID 0000.0001) %MON dynstat_theta_mean           =   2.2627146082727E-02
(PID.TID 0000.0001) %MON dynstat_theta_sd             =   1.2764152631491E+00
(PID.TID 0000.0001) %MON dynstat_theta_del2           =   5.7742167125861E-05
(PID.TID 0000.0001) %MON dynstat_salt_max             =   3.4692815998174E+01
(PID.TID 0000.0001) %MON dynstat_salt_min             =   3.3812121552152E+01
(PID.TID 0000.0001) %MON dynstat_salt_mean            =   3.4431634861297E+01
(PID.TID 0000.0001) %MON dynstat_salt_sd              =   1.8350390477867E-01
(PID.TID 0000.0001) %MON dynstat_salt_del2            =   1.5933457751651E-05
(PID.TID 0000.0001) %MON advcfl_uvel_max              =   5.3762553547727E-13
(PID.TID 0000.0001) %MON advcfl_vvel_max              =   6.8644526231764E-02
(PID.TID 0000.0001) %MON advcfl_wvel_max              =   3.7151074585565E-01
(PID.TID 0000.0001) %MON advcfl_W_hf_max              =   3.7151074585565E-01
(PID.TID 0000.0001) %MON pe_b_mean                    =  -2.8108997556455E-01
(PID.TID 0000.0001) %MON ke_max                       =   1.9736158544445E-02
(PID.TID 0000.0001) %MON ke_mean                      =   1.3479400423859E-03
(PID.TID 0000.0001) %MON ke_vol                       =   1.3174260909008E+12
(PID.TID 0000.0001) // =======================================================
(PID.TID 0000.0001) // End MONITOR dynamic field statistics
(PID.TID 0000.0001) // =======================================================
(PID.TID 0000.0001) // =======================================================
(PID.TID 0000.0001) // Begin OBCS MONITOR field statistics
(PID.TID 0000.0001) // =======================================================
(PID.TID 0000.0001) %MON obc_N_vVel_max               =   2.5000000000000E-02
(PID.TID 0000.0001) %MON obc_N_vVel_min               =  -2.5000000000000E-02
(PID.TID 0000.0001) %MON obc_N_vVel_mean              =   1.0701309254946E-18
(PID.TID 0000.0001) %MON obc_N_vVel_sd                =   1.4595032760272E-02
(PID.TID 0000.0001) %MON obc_N_vVel_Int               =   1.1141310096718E-11
(PID.TID 0000.0001) // =======================================================
(PID.TID 0000.0001) // End OBCS MONITOR field statistics
(PID.TID 0000.0001) // =======================================================
 Computing Diagnostic #    209  SHIfwFlx     Counter:       1   Parms: SM      L1      
 Computing Diagnostic #    210  SHIhtFlx     Counter:       1   Parms: SM      L1      
 Computing Diagnostic #    215  SHIgammT     Counter:       1   Parms: SM      L1      
 Computing Diagnostic #    216  SHIgammS     Counter:       1   Parms: SM      L1      
 Computing Diagnostic #    218  SHI_mass     Counter:       1   Parms: SM      L1      
 Computing Diagnostic #    219  SHIRshel     Counter:       1   Parms: SM      L1      
 Computing Diagnostic #    194  SI_Uvel      Counter:       1   Parms: UZ      L1      
 Computing Diagnostic #    195  SI_Vvel      Counter:       1   Parms: VZ      L1      
 Computing Diagnostic #    196  SI_Thick     Counter:       1   Parms: SM      L1      
 Computing Diagnostic #    199  SI_hmask     Counter:       1   Parms: SM      L1      
 Computing Diagnostic #    198  SI_float     Counter:       1   Parms: SM      L1      
 Computing Diagnostic #    217  SHIuStar     Counter:       1   Parms: SM      L1      
(PID.TID 0000.0001) streamice solo_time_step: nIter0000011413 0.11E+00seconds
 time_step_loc    9.5129375951293768E-006
(PID.TID 0000.0001) END STREAMICE_ADVECT_THICKNESS
 cg2d: Sum(rhs),rhsMax =   1.23262085962145E-01  5.71274330747040E+01
(PID.TID 0000.0001)      cg2d_init_res =   6.76180988649144E-05
(PID.TID 0000.0001)      cg2d_iters(min,last) =      -1     115
(PID.TID 0000.0001)      cg2d_last_res =   5.53133038007777E-12
(PID.TID 0000.0001) CALLING FILL DIAGNOSTICS
(PID.TID 0000.0001) // =======================================================
(PID.TID 0000.0001) // Begin MONITOR dynamic field statistics
(PID.TID 0000.0001) // =======================================================
(PID.TID 0000.0001) %MON time_tsnumber                =                 11414
(PID.TID 0000.0001) %MON time_secondsf                =   3.4242000000000E+06
(PID.TID 0000.0001) %MON dynstat_eta_max              =   2.4731515331426E+00
(PID.TID 0000.0001) %MON dynstat_eta_min              =  -7.4965184087770E+00
(PID.TID 0000.0001) %MON dynstat_eta_mean             =  -1.3347415083008E+00
(PID.TID 0000.0001) %MON dynstat_eta_sd               =   2.4328835068800E+00
(PID.TID 0000.0001) %MON dynstat_eta_del2             =   1.8281085338079E-01
(PID.TID 0000.0001) %MON dynstat_uvel_max             =   6.7523166019520E-12
(PID.TID 0000.0001) %MON dynstat_uvel_min             =  -6.7953876948650E-12
(PID.TID 0000.0001) %MON dynstat_uvel_mean            =  -9.3214576360865E-26
(PID.TID 0000.0001) %MON dynstat_uvel_sd              =   9.4773689318951E-13
(PID.TID 0000.0001) %MON dynstat_uvel_del2            =   2.3114073698071E-14
(PID.TID 0000.0001) %MON dynstat_vvel_max             =   1.9874704977061E-01
(PID.TID 0000.0001) %MON dynstat_vvel_min             =  -1.1041397381108E-01
(PID.TID 0000.0001) %MON dynstat_vvel_mean            =   4.8769085715279E-07
(PID.TID 0000.0001) %MON dynstat_vvel_sd              =   5.1924802186706E-02
(PID.TID 0000.0001) %MON dynstat_vvel_del2            =   1.5257022160701E-05
(PID.TID 0000.0001) %MON dynstat_wvel_max             =   1.2383420052147E-02
(PID.TID 0000.0001) %MON dynstat_wvel_min             =  -7.7950199037036E-03
(PID.TID 0000.0001) %MON dynstat_wvel_mean            =   3.0019629738462E-05
(PID.TID 0000.0001) %MON dynstat_wvel_sd              =   6.8064699335067E-04
(PID.TID 0000.0001) %MON dynstat_wvel_del2            =   3.9320626172424E-06
(PID.TID 0000.0001) %MON dynstat_theta_max            =   1.9439655070699E+00
(PID.TID 0000.0001) %MON dynstat_theta_min            =  -1.8514291214375E+00
(PID.TID 0000.0001) %MON dynstat_theta_mean           =   2.2638666158524E-02
(PID.TID 0000.0001) %MON dynstat_theta_sd             =   1.2764122192739E+00
(PID.TID 0000.0001) %MON dynstat_theta_del2           =   5.7740864376289E-05
(PID.TID 0000.0001) %MON dynstat_salt_max             =   3.4692816090650E+01
(PID.TID 0000.0001) %MON dynstat_salt_min             =   3.3812122013876E+01
(PID.TID 0000.0001) %MON dynstat_salt_mean            =   3.4431635580191E+01
(PID.TID 0000.0001) %MON dynstat_salt_sd              =   1.8350451906485E-01
(PID.TID 0000.0001) %MON dynstat_salt_del2            =   1.5930704438503E-05
(PID.TID 0000.0001) %MON advcfl_uvel_max              =   5.3719054691030E-13
(PID.TID 0000.0001) %MON advcfl_vvel_max              =   6.8645980890621E-02
(PID.TID 0000.0001) %MON advcfl_wvel_max              =   3.7150260156440E-01
(PID.TID 0000.0001) %MON advcfl_W_hf_max              =   3.7150260156440E-01
(PID.TID 0000.0001) %MON pe_b_mean                    =  -2.8107284635519E-01
(PID.TID 0000.0001) %MON ke_max                       =   1.9737029404975E-02
(PID.TID 0000.0001) %MON ke_mean                      =   1.3480589774119E-03
(PID.TID 0000.0001) %MON ke_vol                       =   1.3174262487747E+12
(PID.TID 0000.0001) // =======================================================
(PID.TID 0000.0001) // End MONITOR dynamic field statistics
(PID.TID 0000.0001) // =======================================================
(PID.TID 0000.0001) // =======================================================
(PID.TID 0000.0001) // Begin OBCS MONITOR field statistics
(PID.TID 0000.0001) // =======================================================
(PID.TID 0000.0001) %MON obc_N_vVel_max               =   2.5000000000000E-02
(PID.TID 0000.0001) %MON obc_N_vVel_min               =  -2.5000000000000E-02
(PID.TID 0000.0001) %MON obc_N_vVel_mean              =   1.0701309254946E-18
(PID.TID 0000.0001) %MON obc_N_vVel_sd                =   1.4595032760272E-02
(PID.TID 0000.0001) %MON obc_N_vVel_Int               =   1.1141310096718E-11
(PID.TID 0000.0001) // =======================================================
(PID.TID 0000.0001) // End OBCS MONITOR field statistics
(PID.TID 0000.0001) // =======================================================
 Computing Diagnostic #    209  SHIfwFlx     Counter:       1   Parms: SM      L1      
 Computing Diagnostic #    210  SHIhtFlx     Counter:       1   Parms: SM      L1      
 Computing Diagnostic #    215  SHIgammT     Counter:       1   Parms: SM      L1      
 Computing Diagnostic #    216  SHIgammS     Counter:       1   Parms: SM      L1      
 Computing Diagnostic #    218  SHI_mass     Counter:       1   Parms: SM      L1      
 Computing Diagnostic #    219  SHIRshel     Counter:       1   Parms: SM      L1      
 Computing Diagnostic #    194  SI_Uvel      Counter:       1   Parms: UZ      L1      
 Computing Diagnostic #    195  SI_Vvel      Counter:       1   Parms: VZ      L1      
 Computing Diagnostic #    196  SI_Thick     Counter:       1   Parms: SM      L1      
 Computing Diagnostic #    199  SI_hmask     Counter:       1   Parms: SM      L1      
 Computing Diagnostic #    198  SI_float     Counter:       1   Parms: SM      L1      
 Computing Diagnostic #    217  SHIuStar     Counter:       1   Parms: SM      L1      
(PID.TID 0000.0001) streamice solo_time_step: nIter0000011414 0.11E+00seconds
 time_step_loc    9.5129375951293768E-006
(PID.TID 0000.0001) END STREAMICE_ADVECT_THICKNESS
 cg2d: Sum(rhs),rhsMax =   1.23254642353001E-01  5.71273188904254E+01
(PID.TID 0000.0001)      cg2d_init_res =   6.76188434595298E-05
(PID.TID 0000.0001)      cg2d_iters(min,last) =      -1     115
(PID.TID 0000.0001)      cg2d_last_res =   5.53258306768540E-12
(PID.TID 0000.0001) CALLING FILL DIAGNOSTICS
(PID.TID 0000.0001) // =======================================================
(PID.TID 0000.0001) // Begin MONITOR dynamic field statistics
(PID.TID 0000.0001) // =======================================================
(PID.TID 0000.0001) %MON time_tsnumber                =                 11415
(PID.TID 0000.0001) %MON time_secondsf                =   3.4245000000000E+06
(PID.TID 0000.0001) %MON dynstat_eta_max              =   2.4733374223647E+00
(PID.TID 0000.0001) %MON dynstat_eta_min              =  -7.4963376513391E+00
(PID.TID 0000.0001) %MON dynstat_eta_mean             =  -1.3346582376267E+00
(PID.TID 0000.0001) %MON dynstat_eta_sd               =   2.4328325778205E+00
(PID.TID 0000.0001) %MON dynstat_eta_del2             =   1.8281083994668E-01
(PID.TID 0000.0001) %MON dynstat_uvel_max             =   6.7702914477598E-12
(PID.TID 0000.0001) %MON dynstat_uvel_min             =  -6.7849022494929E-12
(PID.TID 0000.0001) %MON dynstat_uvel_mean            =  -9.1871319636239E-26
(PID.TID 0000.0001) %MON dynstat_uvel_sd              =   9.4805077976382E-13
(PID.TID 0000.0001) %MON dynstat_uvel_del2            =   2.3121280362527E-14
(PID.TID 0000.0001) %MON dynstat_vvel_max             =   1.9875136825386E-01
(PID.TID 0000.0001) %MON dynstat_vvel_min             =  -1.1041142249363E-01
(PID.TID 0000.0001) %MON dynstat_vvel_mean            =   5.1820397765140E-07
(PID.TID 0000.0001) %MON dynstat_vvel_sd              =   5.1927085111458E-02
(PID.TID 0000.0001) %MON dynstat_vvel_del2            =   1.5257651450329E-05
(PID.TID 0000.0001) %MON dynstat_wvel_max             =   1.2383149946632E-02
(PID.TID 0000.0001) %MON dynstat_wvel_min             =  -7.7962809806150E-03
(PID.TID 0000.0001) %MON dynstat_wvel_mean            =   3.0019753944683E-05
(PID.TID 0000.0001) %MON dynstat_wvel_sd              =   6.8066928881387E-04
(PID.TID 0000.0001) %MON dynstat_wvel_del2            =   3.9323122555649E-06
(PID.TID 0000.0001) %MON dynstat_theta_max            =   1.9439662282705E+00
(PID.TID 0000.0001) %MON dynstat_theta_min            =  -1.8514214378123E+00
(PID.TID 0000.0001) %MON dynstat_theta_mean           =   2.2650177833014E-02
(PID.TID 0000.0001) %MON dynstat_theta_sd             =   1.2764091794329E+00
(PID.TID 0000.0001) %MON dynstat_theta_del2           =   5.7740319828406E-05
(PID.TID 0000.0001) %MON dynstat_salt_max             =   3.4692816183112E+01
(PID.TID 0000.0001) %MON dynstat_salt_min             =   3.3812122490027E+01
(PID.TID 0000.0001) %MON dynstat_salt_mean            =   3.4431636298260E+01
(PID.TID 0000.0001) %MON dynstat_salt_sd              =   1.8350513469847E-01
(PID.TID 0000.0001) %MON dynstat_salt_del2            =   1.5928415775405E-05
(PID.TID 0000.0001) %MON advcfl_uvel_max              =   5.3661941992256E-13
(PID.TID 0000.0001) %MON advcfl_vvel_max              =   6.8647472467570E-02
(PID.TID 0000.0001) %MON advcfl_wvel_max              =   3.7149449839897E-01
(PID.TID 0000.0001) %MON advcfl_W_hf_max              =   3.7149449839897E-01
(PID.TID 0000.0001) %MON pe_b_mean                    =  -2.8105572674072E-01
(PID.TID 0000.0001) %MON ke_max                       =   1.9737919458292E-02
(PID.TID 0000.0001) %MON ke_mean                      =   1.3481775496621E-03
(PID.TID 0000.0001) %MON ke_vol                       =   1.3174264066611E+12
(PID.TID 0000.0001) // =======================================================
(PID.TID 0000.0001) // End MONITOR dynamic field statistics
(PID.TID 0000.0001) // =======================================================
(PID.TID 0000.0001) // =======================================================
(PID.TID 0000.0001) // Begin OBCS MONITOR field statistics
(PID.TID 0000.0001) // =======================================================
(PID.TID 0000.0001) %MON obc_N_vVel_max               =   2.5000000000000E-02
(PID.TID 0000.0001) %MON obc_N_vVel_min               =  -2.5000000000000E-02
(PID.TID 0000.0001) %MON obc_N_vVel_mean              =   1.0701309254946E-18
(PID.TID 0000.0001) %MON obc_N_vVel_sd                =   1.4595032760272E-02
(PID.TID 0000.0001) %MON obc_N_vVel_Int               =   1.1141310096718E-11
(PID.TID 0000.0001) // =======================================================
(PID.TID 0000.0001) // End OBCS MONITOR field statistics
(PID.TID 0000.0001) // =======================================================
 Computing Diagnostic #    209  SHIfwFlx     Counter:       1   Parms: SM      L1      
 Computing Diagnostic #    210  SHIhtFlx     Counter:       1   Parms: SM      L1      
 Computing Diagnostic #    215  SHIgammT     Counter:       1   Parms: SM      L1      
 Computing Diagnostic #    216  SHIgammS     Counter:       1   Parms: SM      L1      
 Computing Diagnostic #    218  SHI_mass     Counter:       1   Parms: SM      L1      
 Computing Diagnostic #    219  SHIRshel     Counter:       1   Parms: SM      L1      
 Computing Diagnostic #    194  SI_Uvel      Counter:       1   Parms: UZ      L1      
 Computing Diagnostic #    195  SI_Vvel      Counter:       1   Parms: VZ      L1      
 Computing Diagnostic #    196  SI_Thick     Counter:       1   Parms: SM      L1      
 Computing Diagnostic #    199  SI_hmask     Counter:       1   Parms: SM      L1      
 Computing Diagnostic #    198  SI_float     Counter:       1   Parms: SM      L1      
 Computing Diagnostic #    217  SHIuStar     Counter:       1   Parms: SM      L1      
(PID.TID 0000.0001) %CHECKPOINT     11415 ckptA
(PID.TID 0000.0001)   Seconds in section "ALL                    [THE_MODEL_MAIN]":
(PID.TID 0000.0001)           User time:   17.879791259765625
(PID.TID 0000.0001)         System time:  0.14654100686311722
(PID.TID 0000.0001)     Wall clock time:   18.058079004287720
(PID.TID 0000.0001)          No. starts:           1
(PID.TID 0000.0001)           No. stops:           1
(PID.TID 0000.0001)   Seconds in section "INITIALISE_FIXED       [THE_MODEL_MAIN]":
(PID.TID 0000.0001)           User time:   7.4242003262042999E-002
(PID.TID 0000.0001)         System time:   3.3510000444948673E-002
(PID.TID 0000.0001)     Wall clock time:  0.11638903617858887
(PID.TID 0000.0001)          No. starts:           1
(PID.TID 0000.0001)           No. stops:           1
(PID.TID 0000.0001)   Seconds in section "THE_MAIN_LOOP          [THE_MODEL_MAIN]":
(PID.TID 0000.0001)           User time:   17.805533535778522
(PID.TID 0000.0001)         System time:  0.11299800500273705
(PID.TID 0000.0001)     Wall clock time:   17.941654205322266
(PID.TID 0000.0001)          No. starts:           1
(PID.TID 0000.0001)           No. stops:           1
(PID.TID 0000.0001)   Seconds in section "INITIALISE_VARIA    [THE_MAIN_LOOP]":
(PID.TID 0000.0001)           User time:  0.18677099049091339
(PID.TID 0000.0001)         System time:   3.3303000032901764E-002
(PID.TID 0000.0001)     Wall clock time:  0.24155187606811523
(PID.TID 0000.0001)          No. starts:           1
(PID.TID 0000.0001)           No. stops:           1
(PID.TID 0000.0001)   Seconds in section "MAIN LOOP           [THE_MAIN_LOOP]":
(PID.TID 0000.0001)           User time:   17.618742823600769
(PID.TID 0000.0001)         System time:   7.9689003527164459E-002
(PID.TID 0000.0001)     Wall clock time:   17.700079917907715
(PID.TID 0000.0001)          No. starts:           1
(PID.TID 0000.0001)           No. stops:           1
(PID.TID 0000.0001)   Seconds in section "MAIN_DO_LOOP        [THE_MAIN_LOOP]":
(PID.TID 0000.0001)           User time:   17.618618547916412
(PID.TID 0000.0001)         System time:   7.9652987420558929E-002
(PID.TID 0000.0001)     Wall clock time:   17.699940443038940
(PID.TID 0000.0001)          No. starts:          20
(PID.TID 0000.0001)           No. stops:          20
(PID.TID 0000.0001)   Seconds in section "FORWARD_STEP        [MAIN_DO_LOOP]":
(PID.TID 0000.0001)           User time:   17.618390887975693
(PID.TID 0000.0001)         System time:   7.9613007605075836E-002
(PID.TID 0000.0001)     Wall clock time:   17.699652910232544
(PID.TID 0000.0001)          No. starts:          20
(PID.TID 0000.0001)           No. stops:          20
(PID.TID 0000.0001)   Seconds in section "SHELFICE_REMESHING     [FORWARD_STEP]":
(PID.TID 0000.0001)           User time:   8.6112529039382935E-002
(PID.TID 0000.0001)         System time:   1.0198354721069336E-004
(PID.TID 0000.0001)     Wall clock time:   8.6239099502563477E-002
(PID.TID 0000.0001)          No. starts:          20
(PID.TID 0000.0001)           No. stops:          20
(PID.TID 0000.0001)   Seconds in section "DO_STATEVARS_DIAGS  [FORWARD_STEP]":
(PID.TID 0000.0001)           User time:   2.8725266456604004E-003
(PID.TID 0000.0001)         System time:   8.8013708591461182E-005
(PID.TID 0000.0001)     Wall clock time:   2.9747486114501953E-003
(PID.TID 0000.0001)          No. starts:          60
(PID.TID 0000.0001)           No. stops:          60
(PID.TID 0000.0001)   Seconds in section "LOAD_FIELDS_DRIVER  [FORWARD_STEP]":
(PID.TID 0000.0001)           User time:   4.0021538734436035E-004
(PID.TID 0000.0001)         System time:   6.8999826908111572E-005
(PID.TID 0000.0001)     Wall clock time:   4.6801567077636719E-004
(PID.TID 0000.0001)          No. starts:          20
(PID.TID 0000.0001)           No. stops:          20
(PID.TID 0000.0001)   Seconds in section "EXTERNAL_FLDS_LOAD [LOAD_FLDS_DRIVER]":
(PID.TID 0000.0001)           User time:   1.3768672943115234E-004
(PID.TID 0000.0001)         System time:   2.6009976863861084E-005
(PID.TID 0000.0001)     Wall clock time:   1.6331672668457031E-004
(PID.TID 0000.0001)          No. starts:          20
(PID.TID 0000.0001)           No. stops:          20
(PID.TID 0000.0001)   Seconds in section "DO_ATMOSPHERIC_PHYS [FORWARD_STEP]":
(PID.TID 0000.0001)           User time:   1.1730194091796875E-004
(PID.TID 0000.0001)         System time:   2.2009015083312988E-005
(PID.TID 0000.0001)     Wall clock time:   1.4257431030273438E-004
(PID.TID 0000.0001)          No. starts:          20
(PID.TID 0000.0001)           No. stops:          20
(PID.TID 0000.0001)   Seconds in section "DO_OCEANIC_PHYS     [FORWARD_STEP]":
(PID.TID 0000.0001)           User time:  0.30613532662391663
(PID.TID 0000.0001)         System time:   7.3150023818016052E-003
(PID.TID 0000.0001)     Wall clock time:  0.31347513198852539
(PID.TID 0000.0001)          No. starts:          20
(PID.TID 0000.0001)           No. stops:          20
(PID.TID 0000.0001)   Seconds in section "SHELFICE_THERMODYNAMICS [DO_OCEANIC_PHYS]":
(PID.TID 0000.0001)           User time:   1.2022197246551514E-002
(PID.TID 0000.0001)         System time:   2.1330118179321289E-003
(PID.TID 0000.0001)     Wall clock time:   1.4162540435791016E-002
(PID.TID 0000.0001)          No. starts:          20
(PID.TID 0000.0001)           No. stops:          20
(PID.TID 0000.0001)   Seconds in section "STREAMICE_TIMESTEP [FORWARD_STEP]":
(PID.TID 0000.0001)           User time:   2.4877935647964478E-002
(PID.TID 0000.0001)         System time:   1.5398859977722168E-004
(PID.TID 0000.0001)     Wall clock time:   2.5032758712768555E-002
(PID.TID 0000.0001)          No. starts:          20
(PID.TID 0000.0001)           No. stops:          20
(PID.TID 0000.0001)   Seconds in section "STREAMICE_ADVECT_THICKNESS":
(PID.TID 0000.0001)           User time:   1.3500571250915527E-002
(PID.TID 0000.0001)         System time:   3.3006072044372559E-005
(PID.TID 0000.0001)     Wall clock time:   1.3533353805541992E-002
(PID.TID 0000.0001)          No. starts:          20
(PID.TID 0000.0001)           No. stops:          20
(PID.TID 0000.0001)   Seconds in section "DYNAMICS            [FORWARD_STEP]":
(PID.TID 0000.0001)           User time:   7.4973542094230652
(PID.TID 0000.0001)         System time:   1.5748992562294006E-002
(PID.TID 0000.0001)     Wall clock time:   7.5137443542480469
(PID.TID 0000.0001)          No. starts:          20
(PID.TID 0000.0001)           No. stops:          20
(PID.TID 0000.0001)   Seconds in section "UPDATE_SURF_DR      [FORWARD_STEP]":
(PID.TID 0000.0001)           User time:   3.3802390098571777E-003
(PID.TID 0000.0001)         System time:   3.0003488063812256E-005
(PID.TID 0000.0001)     Wall clock time:   3.4101009368896484E-003
(PID.TID 0000.0001)          No. starts:          20
(PID.TID 0000.0001)           No. stops:          20
(PID.TID 0000.0001)   Seconds in section "UPDATE_CG2D         [FORWARD_STEP]":
(PID.TID 0000.0001)           User time:   9.4581007957458496E-002
(PID.TID 0000.0001)         System time:   4.0084123611450195E-006
(PID.TID 0000.0001)     Wall clock time:   9.4600677490234375E-002
(PID.TID 0000.0001)          No. starts:          20
(PID.TID 0000.0001)           No. stops:          20
(PID.TID 0000.0001)   Seconds in section "SOLVE_FOR_PRESSURE  [FORWARD_STEP]":
(PID.TID 0000.0001)           User time:  0.51377874612808228
(PID.TID 0000.0001)         System time:   2.7999281883239746E-005
(PID.TID 0000.0001)     Wall clock time:  0.51387047767639160
(PID.TID 0000.0001)          No. starts:          20
(PID.TID 0000.0001)           No. stops:          20
(PID.TID 0000.0001)   Seconds in section "MOM_CORRECTION_STEP [FORWARD_STEP]":
(PID.TID 0000.0001)           User time:  0.24309629201889038
(PID.TID 0000.0001)         System time:   0.0000000000000000
(PID.TID 0000.0001)     Wall clock time:  0.24312424659729004
(PID.TID 0000.0001)          No. starts:          20
(PID.TID 0000.0001)           No. stops:          20
(PID.TID 0000.0001)   Seconds in section "INTEGR_CONTINUITY   [FORWARD_STEP]":
(PID.TID 0000.0001)           User time:  0.26356261968612671
(PID.TID 0000.0001)         System time:   0.0000000000000000
(PID.TID 0000.0001)     Wall clock time:  0.26364421844482422
(PID.TID 0000.0001)          No. starts:          20
(PID.TID 0000.0001)           No. stops:          20
(PID.TID 0000.0001)   Seconds in section "CALC_SURF_DR      [FORWARD_STEP]":
(PID.TID 0000.0001)           User time:   6.1721205711364746E-003
(PID.TID 0000.0001)         System time:   0.0000000000000000
(PID.TID 0000.0001)     Wall clock time:   6.1793327331542969E-003
(PID.TID 0000.0001)          No. starts:          20
(PID.TID 0000.0001)           No. stops:          20
(PID.TID 0000.0001)   Seconds in section "BLOCKING_EXCHANGES  [FORWARD_STEP]":
(PID.TID 0000.0001)           User time:  0.24602872133255005
(PID.TID 0000.0001)         System time:   2.9951333999633789E-006
(PID.TID 0000.0001)     Wall clock time:  0.24608087539672852
(PID.TID 0000.0001)          No. starts:          40
(PID.TID 0000.0001)           No. stops:          40
(PID.TID 0000.0001)   Seconds in section "THERMODYNAMICS      [FORWARD_STEP]":
(PID.TID 0000.0001)           User time:   6.4423696398735046
(PID.TID 0000.0001)         System time:   2.7707003057003021E-002
(PID.TID 0000.0001)     Wall clock time:   6.4708702564239502
(PID.TID 0000.0001)          No. starts:          20
(PID.TID 0000.0001)           No. stops:          20
(PID.TID 0000.0001)   Seconds in section "TRC_CORRECTION_STEP [FORWARD_STEP]":
(PID.TID 0000.0001)           User time:  0.81495463848114014
(PID.TID 0000.0001)         System time:   9.9837779998779297E-007
(PID.TID 0000.0001)     Wall clock time:  0.81505537033081055
(PID.TID 0000.0001)          No. starts:          20
(PID.TID 0000.0001)           No. stops:          20
(PID.TID 0000.0001)   Seconds in section "MONITOR             [FORWARD_STEP]":
(PID.TID 0000.0001)           User time:  0.99108922481536865
(PID.TID 0000.0001)         System time:   1.6699731349945068E-004
(PID.TID 0000.0001)     Wall clock time:  0.99143266677856445
(PID.TID 0000.0001)          No. starts:          20
(PID.TID 0000.0001)           No. stops:          20
(PID.TID 0000.0001)   Seconds in section "DO_THE_MODEL_IO     [FORWARD_STEP]":
(PID.TID 0000.0001)           User time:   5.6840896606445312E-002
(PID.TID 0000.0001)         System time:   2.3994006216526031E-002
(PID.TID 0000.0001)     Wall clock time:   8.0865144729614258E-002
(PID.TID 0000.0001)          No. starts:          20
(PID.TID 0000.0001)           No. stops:          20
(PID.TID 0000.0001)   Seconds in section "DO_WRITE_PICKUP     [FORWARD_STEP]":
(PID.TID 0000.0001)           User time:   2.0875453948974609E-002
(PID.TID 0000.0001)         System time:   4.0110126137733459E-003
(PID.TID 0000.0001)     Wall clock time:   2.4886369705200195E-002
(PID.TID 0000.0001)          No. starts:          20
(PID.TID 0000.0001)           No. stops:          20
(PID.TID 0000.0001) // ======================================================
(PID.TID 0000.0001) // Tile <-> Tile communication statistics
(PID.TID 0000.0001) // ======================================================
(PID.TID 0000.0001) // o Tile number: 000001
(PID.TID 0000.0001) //         No. X exchanges =              0
(PID.TID 0000.0001) //            Max. X spins =              0
(PID.TID 0000.0001) //            Min. X spins =     1000000000
(PID.TID 0000.0001) //          Total. X spins =              0
(PID.TID 0000.0001) //            Avg. X spins =       0.00E+00
(PID.TID 0000.0001) //         No. Y exchanges =              0
(PID.TID 0000.0001) //            Max. Y spins =              0
(PID.TID 0000.0001) //            Min. Y spins =     1000000000
(PID.TID 0000.0001) //          Total. Y spins =              0
(PID.TID 0000.0001) //            Avg. Y spins =       0.00E+00
(PID.TID 0000.0001) // o Thread number: 000001
(PID.TID 0000.0001) //            No. barriers =          25332
(PID.TID 0000.0001) //      Max. barrier spins =              1
(PID.TID 0000.0001) //      Min. barrier spins =              1
(PID.TID 0000.0001) //     Total barrier spins =          25332
(PID.TID 0000.0001) //      Avg. barrier spins =       1.00E+00
PROGRAM MAIN: Execution ended Normally
