(PID.TID 0000.0001) 
(PID.TID 0000.0001) // ======================================================
(PID.TID 0000.0001) //                      MITgcm UV
(PID.TID 0000.0001) //                      =========
(PID.TID 0000.0001) // ======================================================
(PID.TID 0000.0001) // execution environment starting up...
(PID.TID 0000.0001) 
(PID.TID 0000.0001) // MITgcmUV version:  checkpoint65t
(PID.TID 0000.0001) // Build user:        jamrda26
(PID.TID 0000.0001) // Build host:        bslscihub-ws2
(PID.TID 0000.0001) // Build date:        Tue Mar 15 15:35:27 GMT 2016
(PID.TID 0000.0001) 
(PID.TID 0000.0001) // =======================================================
(PID.TID 0000.0001) // Execution Environment parameter file "eedata"
(PID.TID 0000.0001) // =======================================================
(PID.TID 0000.0001) ># Example "eedata" file
(PID.TID 0000.0001) ># Lines beginning "#" are comments
(PID.TID 0000.0001) ># nTx - No. threads per process in X
(PID.TID 0000.0001) ># nTy - No. threads per process in Y
(PID.TID 0000.0001) > &EEPARMS
(PID.TID 0000.0001) > &
(PID.TID 0000.0001) ># Note: Some systems use & as the
(PID.TID 0000.0001) ># namelist terminator. Other systems
(PID.TID 0000.0001) ># use a / character (as shown here).
(PID.TID 0000.0001) 
(PID.TID 0000.0001) // =======================================================
(PID.TID 0000.0001) // Computational Grid Specification ( see files "SIZE.h" )
(PID.TID 0000.0001) //                                  ( and "eedata"       )
(PID.TID 0000.0001) // =======================================================
(PID.TID 0000.0001)      nPx =    1 ; /* No. processes in X */
(PID.TID 0000.0001)      nPy =    1 ; /* No. processes in Y */
(PID.TID 0000.0001)      nSx =    1 ; /* No. tiles in X per process */
(PID.TID 0000.0001)      nSy =    1 ; /* No. tiles in Y per process */
(PID.TID 0000.0001)      sNx =    3 ; /* Tile size in X */
(PID.TID 0000.0001)      sNy =  400 ; /* Tile size in Y */
(PID.TID 0000.0001)      OLx =    3 ; /* Tile overlap distance in X */
(PID.TID 0000.0001)      OLy =    3 ; /* Tile overlap distance in Y */
(PID.TID 0000.0001)      nTx =    1 ; /* No. threads in X per process */
(PID.TID 0000.0001)      nTy =    1 ; /* No. threads in Y per process */
(PID.TID 0000.0001)       Nr =  130 ; /* No. levels in the vertical   */
(PID.TID 0000.0001)       Nx =    3 ; /* Total domain size in X ( = nPx*nSx*sNx ) */
(PID.TID 0000.0001)       Ny =  400 ; /* Total domain size in Y ( = nPy*nSy*sNy ) */
(PID.TID 0000.0001)   nTiles =    1 ; /* Total no. tiles per process ( = nSx*nSy ) */
(PID.TID 0000.0001)   nProcs =    1 ; /* Total no. processes ( = nPx*nPy ) */
(PID.TID 0000.0001) nThreads =    1 ; /* Total no. threads per process ( = nTx*nTy ) */
(PID.TID 0000.0001) usingMPI =    T ; /* Flag used to control whether MPI is in use */
(PID.TID 0000.0001)                   /*  note: To execute a program with MPI calls */
(PID.TID 0000.0001)                   /*  it must be launched appropriately e.g     */
(PID.TID 0000.0001)                   /*  "mpirun -np 64 ......"                    */
(PID.TID 0000.0001) useCoupler=    F ;/* Flag used to control communications with   */
(PID.TID 0000.0001)                   /*  other model components, through a coupler */
(PID.TID 0000.0001) debugMode =    F ; /* print debug msg. (sequence of S/R calls)  */
(PID.TID 0000.0001) printMapIncludesZeros=    F ; /* print zeros in Std.Output maps */
(PID.TID 0000.0001) maxLengthPrt1D=   65 /* maxLength of 1D array printed to StdOut */
(PID.TID 0000.0001) 
(PID.TID 0000.0001) ======= Starting MPI parallel Run =========
(PID.TID 0000.0001)  My Processor Name (len:  7 ) = node015
(PID.TID 0000.0001)  Located at (  0,  0) on processor grid (0:  0,0:  0)
(PID.TID 0000.0001)  Origin at  (     1,     1) on global grid (1:     3,1:   400)
(PID.TID 0000.0001)  North neighbor = processor 0000
(PID.TID 0000.0001)  South neighbor = processor 0000
(PID.TID 0000.0001)   East neighbor = processor 0000
(PID.TID 0000.0001)   West neighbor = processor 0000
(PID.TID 0000.0001) // ======================================================
(PID.TID 0000.0001) // Mapping of tiles to threads
(PID.TID 0000.0001) // ======================================================
(PID.TID 0000.0001) // -o- Thread   1, tiles (   1:   1,   1:   1)
(PID.TID 0000.0001) 
(PID.TID 0000.0001) // ======================================================
(PID.TID 0000.0001) // Tile <-> Tile connectvity table
(PID.TID 0000.0001) // ======================================================
(PID.TID 0000.0001) // Tile number: 000001 (process no. = 000000)
(PID.TID 0000.0001) //        WEST: Tile = 000001, Process = 000000, Comm = put
(PID.TID 0000.0001) //                bi = 000001, bj = 000001
(PID.TID 0000.0001) //        EAST: Tile = 000001, Process = 000000, Comm = put
(PID.TID 0000.0001) //                bi = 000001, bj = 000001
(PID.TID 0000.0001) //       SOUTH: Tile = 000001, Process = 000000, Comm = put
(PID.TID 0000.0001) //                bi = 000001, bj = 000001
(PID.TID 0000.0001) //       NORTH: Tile = 000001, Process = 000000, Comm = put
(PID.TID 0000.0001) //                bi = 000001, bj = 000001
(PID.TID 0000.0001) 
(PID.TID 0000.0001)  INI_PARMS: opening model parameter file "data"
(PID.TID 0000.0001)  OPEN_COPY_DATA_FILE: opening file data
(PID.TID 0000.0001) // =======================================================
(PID.TID 0000.0001) // Parameter file "data"
(PID.TID 0000.0001) // =======================================================
(PID.TID 0000.0001) >#:::====================
(PID.TID 0000.0001) ># | Model parameters |
(PID.TID 0000.0001) ># ====================
(PID.TID 0000.0001) >#
(PID.TID 0000.0001) ># Continuous equation parameters
(PID.TID 0000.0001) > &PARM01
(PID.TID 0000.0001) ># momstepping=.FALSE.,
(PID.TID 0000.0001) ># tempstepping=.FALSE.,
(PID.TID 0000.0001) ># saltstepping=.FALSE.,
(PID.TID 0000.0001) > Tref = 50*-1.9,
(PID.TID 0000.0001) > Sref = 50*34.4,
(PID.TID 0000.0001) > viscAr=1.E-3,
(PID.TID 0000.0001) >#viscAh=600.0,
(PID.TID 0000.0001) > viscAhGrid=0.2,
(PID.TID 0000.0001) > viscA4Grid=0.02,
(PID.TID 0000.0001) > no_slip_sides=.FALSE.,
(PID.TID 0000.0001) > no_slip_bottom=.FALSE.,
(PID.TID 0000.0001) > diffKhT= 100.0,
(PID.TID 0000.0001) >#diffKhT= 600.0,
(PID.TID 0000.0001) > diffKrT=5.E-5,
(PID.TID 0000.0001) > diffKhS= 100.0,
(PID.TID 0000.0001) >#diffKhS= 600.0,
(PID.TID 0000.0001) > diffKrS=5.E-5,
(PID.TID 0000.0001) > bottomDragQuadratic=2.5E-3,
(PID.TID 0000.0001) > staggerTimestep = .true.,
(PID.TID 0000.0001) > tempAdvScheme=30,
(PID.TID 0000.0001) > saltAdvScheme=30,
(PID.TID 0000.0001) > vectorInvariantMomentum = .true.,
(PID.TID 0000.0001) >### momImplVertAdv=.true.,
(PID.TID 0000.0001) > tempImplVertAdv=.true.,
(PID.TID 0000.0001) > saltImplVertAdv=.true.,
(PID.TID 0000.0001) > eosType='JMD95Z',
(PID.TID 0000.0001) >#tAlpha = 2.E-4,
(PID.TID 0000.0001) >#sBeta  = 7.4E-4,
(PID.TID 0000.0001) > HeatCapacity_cp = 3974.0,
(PID.TID 0000.0001) > rhoConst=1000.,
(PID.TID 0000.0001) > rhoNil=1000.,
(PID.TID 0000.0001) > gravity=9.81,
(PID.TID 0000.0001) > gBaro=9.81,
(PID.TID 0000.0001) > implicitDiffusion = .true.,
(PID.TID 0000.0001) > implicitViscosity = .true.,
(PID.TID 0000.0001) > rigidLid=.FALSE.,
(PID.TID 0000.0001) > implicitFreeSurface=.TRUE.,
(PID.TID 0000.0001) > useRealFreshWaterFlux = .true.,
(PID.TID 0000.0001) > exactConserv=.TRUE.,
(PID.TID 0000.0001) ># start nlfs with rstar
(PID.TID 0000.0001) >#select_rStar=2,
(PID.TID 0000.0001) > nonlinFreeSurf=4,
(PID.TID 0000.0001) > hFacInf=0.2,
(PID.TID 0000.0001) > hFacSup=2.0,
(PID.TID 0000.0001) ># end nlfs with rstar
(PID.TID 0000.0001) > hFacMin=0.2,
(PID.TID 0000.0001) >#integr_GeoPot = 1,
(PID.TID 0000.0001) >#ivdc_kappa = 0.005.,
(PID.TID 0000.0001) >#implicitDiffusion=.true.,
(PID.TID 0000.0001) >#implicitViscosity=.true.,
(PID.TID 0000.0001) >#useCDscheme=.true.,
(PID.TID 0000.0001) >#nonHydrostatic=.true.,
(PID.TID 0000.0001) >#allowFreezing = .true.,
(PID.TID 0000.0001) > readBinaryPrec=64,
(PID.TID 0000.0001) >#writeBinaryPrec=64,
(PID.TID 0000.0001) >#debuglevel = 1,
(PID.TID 0000.0001) > selectCoriMap = 0,
(PID.TID 0000.0001) > f0 = 0.0,
(PID.TID 0000.0001) > useSingleCpuIO=.TRUE.,
(PID.TID 0000.0001) > globalFiles=.TRUE.,
(PID.TID 0000.0001) > useCoriolis=.TRUE.,
(PID.TID 0000.0001) > &
(PID.TID 0000.0001) >
(PID.TID 0000.0001) ># Elliptic solver parameters
(PID.TID 0000.0001) > &PARM02
(PID.TID 0000.0001) > cg2dMaxIters=300,
(PID.TID 0000.0001) > cg2dTargetResidual=1.E-11,
(PID.TID 0000.0001) >#cg3dMaxIters=40,
(PID.TID 0000.0001) >#cg3dTargetResidual=1.E-13,
(PID.TID 0000.0001) > &
(PID.TID 0000.0001) >
(PID.TID 0000.0001) >#Time stepping parameters
(PID.TID 0000.0001) > &PARM03
(PID.TID 0000.0001) ># niter0=0,
(PID.TID 0000.0001) ># nTimeSteps=25920000.,
(PID.TID 0000.0001) > nTimeSteps=12,
(PID.TID 0000.0001) > startTime=2592000.,
(PID.TID 0000.0001) ># startTime = 0.,
(PID.TID 0000.0001) >#startTime=62208000.,
(PID.TID 0000.0001) >#startTime=15552000.,
(PID.TID 0000.0001) >#endTime=31104000.,
(PID.TID 0000.0001) > deltaT=300.0,
(PID.TID 0000.0001) >### deltaT=1200.0,
(PID.TID 0000.0001) > forcing_In_AB  = .false.,
(PID.TID 0000.0001) >#rCD = 0.9896,
(PID.TID 0000.0001) > abEps=0.1,
(PID.TID 0000.0001) > cAdjFreq = -1.,
(PID.TID 0000.0001) > pChkptFreq=2592000,
(PID.TID 0000.0001) > chkptFreq=2592000.0,
(PID.TID 0000.0001) ># pChkptFreq=600.0,
(PID.TID 0000.0001) ># chkptFreq=600.0,
(PID.TID 0000.0001) > dumpFreq=15552000,
(PID.TID 0000.0001) > monitorFreq=15552000.,
(PID.TID 0000.0001) > monitorSelect=1,
(PID.TID 0000.0001) > monitorFreq=1.,
(PID.TID 0000.0001) > &
(PID.TID 0000.0001) >
(PID.TID 0000.0001) ># Gridding parameters
(PID.TID 0000.0001) > &PARM04
(PID.TID 0000.0001) > usingCartesianGrid=.FALSE.,
(PID.TID 0000.0001) > usingSphericalPolarGrid=.TRUE.,
(PID.TID 0000.0001) >#delR = 10., 10., 10., 10., 10., 10., 10., 10.01, 10.03, 10.11,
(PID.TID 0000.0001) >#10.32, 10.8, 11.76, 13.42, 16.04, 19.82, 24.85, 31.1, 38.42, 46.5,
(PID.TID 0000.0001) >#55., 63.5, 71.58, 78.9, 85.15, 90.18, 93.96, 96.58, 98.25, 99.25,
(PID.TID 0000.0001) >#100.01, 101.33, 104.56, 111.33, 122.83, 139.09, 158.94, 180.83, 203.55, 226.5,
(PID.TID 0000.0001) >#249.5, 272.5, 295.5, 318.5, 341.5, 364.5, 387.5, 410.5, 433.5, 456.5,
(PID.TID 0000.0001) > delR=130*10.,
(PID.TID 0000.0001) > delX=3*.125,
(PID.TID 0000.0001) > delY=400*.0078125,
(PID.TID 0000.0001) ># delYFile='dlat.bin',
(PID.TID 0000.0001) ># delY=30*10e3,
(PID.TID 0000.0001) > xgOrigin = -105.5,
(PID.TID 0000.0001) > ygOrigin =  -75.4457,
(PID.TID 0000.0001) > &
(PID.TID 0000.0001) >
(PID.TID 0000.0001) ># Input datasets
(PID.TID 0000.0001) > &PARM05
(PID.TID 0000.0001) > bathyFile='bathy101.box',
(PID.TID 0000.0001) > hydrogThetaFile='theta.init',	
(PID.TID 0000.0001) > hydrogSaltFile='salt.init',
(PID.TID 0000.0001) > pSurfInitFile='etainit.round.bin',
(PID.TID 0000.0001) > &
(PID.TID 0000.0001) 
(PID.TID 0000.0001)  INI_PARMS ; starts to read PARM01
(PID.TID 0000.0001)  INI_PARMS ; read PARM01 : OK
(PID.TID 0000.0001)  INI_PARMS ; starts to read PARM02
(PID.TID 0000.0001)  INI_PARMS ; read PARM02 : OK
(PID.TID 0000.0001)  INI_PARMS ; starts to read PARM03
(PID.TID 0000.0001)  INI_PARMS ; read PARM03 : OK
(PID.TID 0000.0001)  INI_PARMS ; starts to read PARM04
(PID.TID 0000.0001)  INI_PARMS ; read PARM04 : OK
(PID.TID 0000.0001)  INI_PARMS ; starts to read PARM05
(PID.TID 0000.0001)  INI_PARMS ; read PARM05 : OK
(PID.TID 0000.0001)  INI_PARMS: finished reading file "data"
(PID.TID 0000.0001)  PACKAGES_BOOT: opening data.pkg
(PID.TID 0000.0001)  OPEN_COPY_DATA_FILE: opening file data.pkg
(PID.TID 0000.0001) // =======================================================
(PID.TID 0000.0001) // Parameter file "data.pkg"
(PID.TID 0000.0001) // =======================================================
(PID.TID 0000.0001) ># Packages
(PID.TID 0000.0001) > &PACKAGES
(PID.TID 0000.0001) >#useKPP=.true.,
(PID.TID 0000.0001) > useOBCS=.true.,
(PID.TID 0000.0001) > useMNC=.FALSE.,
(PID.TID 0000.0001) > useShelfIce=.true.,
(PID.TID 0000.0001) > useStreamIce=.true.,
(PID.TID 0000.0001) >#useSEAICE=.true.,
(PID.TID 0000.0001) > useDiagnostics = .true.,
(PID.TID 0000.0001) > &
(PID.TID 0000.0001) 
(PID.TID 0000.0001)  PACKAGES_BOOT: finished reading data.pkg
(PID.TID 0000.0001)  PACKAGES_BOOT: On/Off package Summary
 --------  pkgs with a standard "usePKG" On/Off switch in "data.pkg":  --------
 pkg/obcs                 compiled   and   used ( useOBCS                  = T )
 pkg/shelfice             compiled   and   used ( useShelfIce              = T )
 pkg/streamice            compiled   and   used ( useStreamIce             = T )
 pkg/diagnostics          compiled   and   used ( useDiagnostics           = T )
 -------- pkgs without standard "usePKG" On/Off switch in "data.pkg":  --------
 pkg/generic_advdiff      compiled   and   used ( useGAD                   = T )
 pkg/mom_common           compiled   and   used ( momStepping              = T )
 pkg/mom_vecinv           compiled   and   used ( +vectorInvariantMomentum = T )
 pkg/mom_fluxform         compiled but not used ( & not vectorInvariantMom = F )
 pkg/monitor              compiled   and   used ( monitorFreq > 0.         = T )
 pkg/debug                compiled but not used ( debugMode                = F )
 pkg/rw                   compiled   and   used
 pkg/mdsio                compiled   and   used
(PID.TID 0000.0001)  PACKAGES_BOOT: End of package Summary
(PID.TID 0000.0001) 
(PID.TID 0000.0001)  OBCS_READPARMS: opening data.obcs
(PID.TID 0000.0001)  OPEN_COPY_DATA_FILE: opening file data.obcs
(PID.TID 0000.0001) // =======================================================
(PID.TID 0000.0001) // Parameter file "data.obcs"
(PID.TID 0000.0001) // =======================================================
(PID.TID 0000.0001) ># Open-boundaries
(PID.TID 0000.0001) > &OBCS_PARM01
(PID.TID 0000.0001) > OB_Jnorth=3*400,
(PID.TID 0000.0001) > useOBCSprescribe=.true.,
(PID.TID 0000.0001) > useOBCSsponge=.true.,
(PID.TID 0000.0001) ># OBWuFile='uvel.obw',
(PID.TID 0000.0001) > OBNvFile='vvel.obw',
(PID.TID 0000.0001) > OBNtFile='theta.obw',
(PID.TID 0000.0001) > OBNsFile='salt.obw',
(PID.TID 0000.0001) > useOrlanskiNorth=.FALSE.,
(PID.TID 0000.0001) > &
(PID.TID 0000.0001) >
(PID.TID 0000.0001) ># Orlanski parameters
(PID.TID 0000.0001) > &OBCS_PARM02
(PID.TID 0000.0001) >#Cmax=0.45,
(PID.TID 0000.0001) >#cVelTimeScale=1000.,
(PID.TID 0000.0001) > &
(PID.TID 0000.0001) >
(PID.TID 0000.0001) ># Sponge layer parameters
(PID.TID 0000.0001) > &OBCS_PARM03
(PID.TID 0000.0001) > spongeThickness = 20,
(PID.TID 0000.0001) > Vrelaxobcsbound = 864000.,
(PID.TID 0000.0001) > Urelaxobcsbound = 864000.,
(PID.TID 0000.0001) > &
(PID.TID 0000.0001) 
(PID.TID 0000.0001)  OBCS_READPARMS: finished reading data.obcs
(PID.TID 0000.0001)  OB_indexUnset = /* unset OB index value (i.e. no OB) */
(PID.TID 0000.0001)                       0
(PID.TID 0000.0001)     ;
(PID.TID 0000.0001)  Northern OB global indices : OB_Jnorth =
(PID.TID 0000.0001)     3 @      400                            /* I =  1:  3 */
(PID.TID 0000.0001)  Southern OB global indices : OB_Jsouth =
(PID.TID 0000.0001)     3 @        0                            /* I =  1:  3 */
(PID.TID 0000.0001)  Eastern  OB global indices : OB_Ieast =
(PID.TID 0000.0001)   400 @        0                            /* J =  1:400 */
(PID.TID 0000.0001)  Western  OB global indices : OB_Iwest =
(PID.TID 0000.0001)   400 @        0                            /* J =  1:400 */
(PID.TID 0000.0001) 
(PID.TID 0000.0001)  SHELFICE_READPARMS: opening data.shelfice
(PID.TID 0000.0001)  OPEN_COPY_DATA_FILE: opening file data.shelfice
(PID.TID 0000.0001) // =======================================================
(PID.TID 0000.0001) // Parameter file "data.shelfice"
(PID.TID 0000.0001) // =======================================================
(PID.TID 0000.0001) ># ===================================
(PID.TID 0000.0001) ># | Parameters for SHELFICE package |
(PID.TID 0000.0001) ># ===================================
(PID.TID 0000.0001) > &SHELFICE_PARM01
(PID.TID 0000.0001) > SHELFICEwriteState = .true.,
(PID.TID 0000.0001) >#mult_shelfice=1.,
(PID.TID 0000.0001) >#useISOMIPTD = .true.,
(PID.TID 0000.0001) > SHELFICEconserve = .true.,
(PID.TID 0000.0001) > SHELFICEboundaryLayer = .true.,
(PID.TID 0000.0001) ># SHELFICEtopoFile='shelftopo.pig.bin',
(PID.TID 0000.0001) > SHELFICEtopoFile='shelftopo.round.bin',
(PID.TID 0000.0001) ># SHELFICEloadAnomalyFile = 'pload.pig.jmd95z',
(PID.TID 0000.0001) ># SHELFICEMassDynTendFile = 'MDS.bin',
(PID.TID 0000.0001) ># SHELFICEGroundInitFile= 'shelficegroundinit.bin',
(PID.TID 0000.0001) ># SHELFICEGroundTopoFile= 'shelftopo.ground.bin',
(PID.TID 0000.0001) > SHELFICErealFWflux =.true.,
(PID.TID 0000.0001) > SHELFICEmassFile = 'shelficemassinit.bin',
(PID.TID 0000.0001) > SHELFICEuseGammaFrict = .true.,
(PID.TID 0000.0001) > SHELFICEDragQuadratic = 0.0015,
(PID.TID 0000.0001) > shiCdrag = 0.0015,
(PID.TID 0000.0001) > SHELFICEMassStepping = .true.,
(PID.TID 0000.0001) > SHELFICERemeshFrequency = 2593800.0,
(PID.TID 0000.0001) > SHELFICESplitThreshold =1.25,
(PID.TID 0000.0001) > SHELFICEMergeThreshold =0.24,
(PID.TID 0000.0001) > SHELFICEEtaSponge = .true.,
(PID.TID 0000.0001) > shelficeEtaRelax = 432000.,
(PID.TID 0000.0001) > shelfice_etarestore_spongewidth = 5,
(PID.TID 0000.0001) > &
(PID.TID 0000.0001) 
(PID.TID 0000.0001)  SHELFICE_READPARMS: finished reading data.shelfice
(PID.TID 0000.0001) STREAMICE_READPARMS: opening data.streamice
(PID.TID 0000.0001)  OPEN_COPY_DATA_FILE: opening file data.streamice
(PID.TID 0000.0001) // =======================================================
(PID.TID 0000.0001) // Parameter file "data.streamice"
(PID.TID 0000.0001) // =======================================================
(PID.TID 0000.0001) ># ====================================
(PID.TID 0000.0001) ># | Parameters for STREAMICE package |
(PID.TID 0000.0001) ># ====================================
(PID.TID 0000.0001) > &STREAMICE_PARM01
(PID.TID 0000.0001) > streamice_maxnliter_cpl = 1,
(PID.TID 0000.0001) > streamice_maxcgiter_cpl = 700,
(PID.TID 0000.0001) > STREAMICE_allow_cpl=.true.,
(PID.TID 0000.0001) > streamice_vel_update = 43200.,
(PID.TID 0000.0001) > streamice_density = 917.,
(PID.TID 0000.0001) > streamice_density_ocean_avg = 1028.,
(PID.TID 0000.0001) > B_glen_isothermal = 700.,
(PID.TID 0000.0001) > C_basal_fric_const = 5.,
(PID.TID 0000.0001) > n_glen = 3.0,
(PID.TID 0000.0001) > n_basal_friction = 1.,
(PID.TID 0000.0001) > streamice_diagnostic_only=.false.,
(PID.TID 0000.0001) > eps_glen_min = 1.0e-12,
(PID.TID 0000.0001) > eps_u_min = 1.0e-12,
(PID.TID 0000.0001) > streamice_cg_tol = 1.0e-6,
(PID.TID 0000.0001) > STREAMICE_lower_cg_tol = .true.,
(PID.TID 0000.0001) > streamice_nonlin_tol = .000001,
(PID.TID 0000.0001) > streamice_nonlin_tol_fp = .00000001,
(PID.TID 0000.0001) > streamice_max_cg_iter = 700,
(PID.TID 0000.0001) > streamice_max_nl_iter = 50,
(PID.TID 0000.0001) > STREAMICE_calve_to_mask = .false.,
(PID.TID 0000.0001) > streamice_CFL_factor = 0.5,
(PID.TID 0000.0001) > STREAMICE_dump_mdsio = .true.,
(PID.TID 0000.0001) > streamice_bg_surf_slope_x = 0.,
(PID.TID 0000.0001) > STREAMICEthickInit='FILE',
(PID.TID 0000.0001) > STREAMICEthickFile='hinit666.box',
(PID.TID 0000.0001) ># STREAMICEthickFile='h0.bin',
(PID.TID 0000.0001) > STREAMICEtopogFile='bathy101.box',
(PID.TID 0000.0001) > STREAMICEuFaceBdryFile = 'ufacemask3.box',
(PID.TID 0000.0001) > STREAMICEvFaceBdryFile = 'vfacemask3.box',
(PID.TID 0000.0001) > STREAMICEvMassFluxFile='vmassflux3.box',
(PID.TID 0000.0001) ># STREAMICEvDirichValsFile='vdirich.box',
(PID.TID 0000.0001) > STREAMICEhmaskFile = 'hmask3.box',
(PID.TID 0000.0001) ># STREAMICEHBCyFile = 'HBCy.box',
(PID.TID 0000.0001) > STREAMICEbasalTracConfig='UNIFORM',
(PID.TID 0000.0001) > STREAMICEGlenConstConfig='UNIFORM',
(PID.TID 0000.0001) > STREAMICE_chkfixedptconvergence=.true.,
(PID.TID 0000.0001) > STREAMICE_chkresidconvergence=.false.,
(PID.TID 0000.0001) > streamice_buttr_width=55.e3,
(PID.TID 0000.0001) > useStreamiceFlowlineButtr=.true.,
(PID.TID 0000.0001) > &
(PID.TID 0000.0001) >
(PID.TID 0000.0001) > &STREAMICE_PARM02
(PID.TID 0000.0001) > shelf_max_draft = 1300.0,
(PID.TID 0000.0001) > shelf_min_draft = 300.0,
(PID.TID 0000.0001) > shelf_edge_pos = 70.0e3,
(PID.TID 0000.0001) > shelf_slope_scale = 62.0e3,
(PID.TID 0000.0001) > shelf_flat_width = 20.0e3,
(PID.TID 0000.0001) > &
(PID.TID 0000.0001) >
(PID.TID 0000.0001) ># &STREAMICE_PARMPETSC
(PID.TID 0000.0001) ># PETSC_SOLVER_TYPE = 'CG',
(PID.TID 0000.0001) ># PETSC_PRECOND_TYPE = 'GAMG',
(PID.TID 0000.0001) ># &
(PID.TID 0000.0001) >
(PID.TID 0000.0001) > &STREAMICE_PARM03
(PID.TID 0000.0001) > min_x_noflow_north = -200.0,
(PID.TID 0000.0001) > max_x_noflow_north = 0.0,
(PID.TID 0000.0001) > min_x_noflow_south = -200.0,
(PID.TID 0000.0001) > max_x_noflow_south = 0.0,
(PID.TID 0000.0001) > min_y_noflow_WEST = 0.0,
(PID.TID 0000.0001) > max_y_noflow_WEST = 0.0,
(PID.TID 0000.0001) > min_y_noflow_EAST = -180.0,
(PID.TID 0000.0001) > max_y_noflow_EAST = 0.0,
(PID.TID 0000.0001) > min_x_noStress_NORTH = 0.0e3,
(PID.TID 0000.0001) > max_x_noStress_NORTH = 0.0e3,
(PID.TID 0000.0001) > min_x_noStress_SOUTH = 0.0e3,
(PID.TID 0000.0001) > max_x_noStress_SOUTH = 0.0e3,
(PID.TID 0000.0001) > min_y_noStress_WEST = -1.0,
(PID.TID 0000.0001) > max_y_noStress_WEST = -1.0,
(PID.TID 0000.0001) > min_y_noStress_EAST = -1.0,
(PID.TID 0000.0001) > max_y_noStress_EAST = -1.0,
(PID.TID 0000.0001) > min_x_FluxBdry_NORTH = -1.0,
(PID.TID 0000.0001) > max_x_FluxBdry_NORTH = -1.0,
(PID.TID 0000.0001) > min_x_FluxBdry_SOUTH = -1.0,
(PID.TID 0000.0001) > max_x_FluxBdry_SOUTH = -1.0,
(PID.TID 0000.0001) > min_y_FluxBdry_WEST = 0.0,
(PID.TID 0000.0001) > max_y_FluxBdry_WEST = 0.0,
(PID.TID 0000.0001) > min_y_FluxBdry_EAST = -180.0,
(PID.TID 0000.0001) > max_y_FluxBdry_EAST = 0.0,
(PID.TID 0000.0001) > min_x_Dirich_NORTH = -1.0,
(PID.TID 0000.0001) > max_x_Dirich_NORTH = -1.0,
(PID.TID 0000.0001) > min_x_Dirich_SOUTH = -1.0,
(PID.TID 0000.0001) > max_x_Dirich_SOUTH = -1.0,
(PID.TID 0000.0001) > min_y_Dirich_WEST = -1.0,
(PID.TID 0000.0001) > max_y_Dirich_WEST = -1.0,
(PID.TID 0000.0001) > min_y_Dirich_EAST = -1.0,
(PID.TID 0000.0001) > max_y_Dirich_EAST = -1.0,
(PID.TID 0000.0001) > min_x_CFBC_NORTH = -1.0,
(PID.TID 0000.0001) > max_x_CFBC_NORTH = -1.0,
(PID.TID 0000.0001) > min_x_CFBC_SOUTH = -1.0,
(PID.TID 0000.0001) > max_x_CFBC_SOUTH = -1.0,
(PID.TID 0000.0001) > min_y_CFBC_WEST = -180.0,
(PID.TID 0000.0001) > max_y_CFBC_WEST = 0.0,
(PID.TID 0000.0001) > min_y_CFBC_EAST = 0.0,
(PID.TID 0000.0001) > max_y_CFBC_EAST = 0.0e3,
(PID.TID 0000.0001) > flux_bdry_val_EAST =1.5e6,
(PID.TID 0000.0001) > STREAMICE_NS_periodic = .false.,
(PID.TID 0000.0001) > STREAMICE_EW_periodic = .false.,
(PID.TID 0000.0001) > &
(PID.TID 0000.0001) 
(PID.TID 0000.0001) STREAMICE_READPARMS: read first param block
(PID.TID 0000.0001) STREAMICE_READPARMS: read third param block
(PID.TID 0000.0001)  DIAGNOSTICS_READPARMS: opening data.diagnostics
(PID.TID 0000.0001)  OPEN_COPY_DATA_FILE: opening file data.diagnostics
(PID.TID 0000.0001) // =======================================================
(PID.TID 0000.0001) // Parameter file "data.diagnostics"
(PID.TID 0000.0001) // =======================================================
(PID.TID 0000.0001) ># Diagnostic Package Choices
(PID.TID 0000.0001) >#-----------------
(PID.TID 0000.0001) ># for each output-stream:
(PID.TID 0000.0001) >#  filename(n) : prefix of the output file name (only 8.c long) for outp.stream n
(PID.TID 0000.0001) >#  frequency(n):< 0 : write snap-shot output every |frequency| seconds
(PID.TID 0000.0001) >#               > 0 : write time-average output every frequency seconds
(PID.TID 0000.0001) >#  timePhase(n)     : write at time = timePhase + multiple of |frequency|
(PID.TID 0000.0001) >#  averagingFreq(n) : frequency (in s) for periodic averaging interval
(PID.TID 0000.0001) >#  averagingPhase(n): phase     (in s) for periodic averaging interval
(PID.TID 0000.0001) >#  repeatCycle(n)   : number of averaging intervals in 1 cycle
(PID.TID 0000.0001) >#  levels(:,n) : list of levels to write to file (Notes: declared as REAL)
(PID.TID 0000.0001) >#                 when this entry is missing, select all common levels of this list
(PID.TID 0000.0001) >#  fields(:,n) : list of diagnostics fields (8.c) (see "available_diagnostics.log"
(PID.TID 0000.0001) >#                 file for the list of all available diag. in this particular config)
(PID.TID 0000.0001) >#-----------------
(PID.TID 0000.0001) > &DIAGNOSTICS_LIST
(PID.TID 0000.0001) ># diag_mnc     = .FALSE.,
(PID.TID 0000.0001) ># dumpAtLast   = .TRUE.,
(PID.TID 0000.0001) >  fields(1:14,1) = 'ETAN    ','oceTAUX ','oceTAUY ',
(PID.TID 0000.0001) >                 'oceQnet ','oceFWflx','MXLDEPTH',
(PID.TID 0000.0001) >                'SHIfwFlx','SHIhtFlx','SHIgammT','SHIgammS',
(PID.TID 0000.0001) >                'SHI_mass','SHIuStar','SHIRshel','SHI_MEff',
(PID.TID 0000.0001) >#                 'SI_Uvel ','SI_Vvel ','SI_Thick','SI_hmask',
(PID.TID 0000.0001) >#                 'SHIuLocM','SHIvLocM','SHIwLocM','SHItLocM','SHIsLocM',
(PID.TID 0000.0001) >#		 'SHItLocB','SHIsLocB'
(PID.TID 0000.0001) >#                'SHIForcT','SHIForcS',
(PID.TID 0000.0001) >#                'surForcT','surForcS','TFLUX   ','SFLUX   ','oceFreez',
(PID.TID 0000.0001) >#                 'TRELAX  ','SRELAX  ',
(PID.TID 0000.0001) >#                'GM_VisbK',
(PID.TID 0000.0001) >#  fields(1,1)='ETAN'
(PID.TID 0000.0001) >   filename(1) = 'surfDiag',
(PID.TID 0000.0001) >  frequency(1) =  300.,
(PID.TID 0000.0001) >   fields(1:7,2) = 'UVEL    ','VVEL    ','WVEL    ',
(PID.TID 0000.0001) >                 'THETA   ','SALT    ','RHOAnoma', 'CONVADJ',
(PID.TID 0000.0001) >   filename(2) = 'dynDiag',
(PID.TID 0000.0001) >  frequency(2) =  300.,
(PID.TID 0000.0001) >   fields(1:5,3) = 'SI_Uvel ','SI_Vvel ','SI_Thick','SI_hmask','SI_float',
(PID.TID 0000.0001) >   filename(3) = 'streamice',
(PID.TID 0000.0001) >  frequency(3) =  300.,
(PID.TID 0000.0001) >#  fields(1,3) = 'EXFpreci','EXFuwind','EXFvwind','EXFtaux ','EXFtauy ',
(PID.TID 0000.0001) >#                'EXFlwdn ','EXFswdn ','EXFatemp','EXFaqh  ','EXFpress',
(PID.TID 0000.0001) >#                'GM_PsiX ','GM_PsiY ',
(PID.TID 0000.0001) >#                'GM_Kwx  ','GM_Kwy  ','GM_Kwz  ',
(PID.TID 0000.0001) >#                'GM_Kux  ','GM_Kvy  ',
(PID.TID 0000.0001) >#                'GM_Kuz  ','GM_Kvz  ',
(PID.TID 0000.0001) >#- disable this output list by commenting out the file name
(PID.TID 0000.0001) >#  filename(3) = 'diagsEXF',
(PID.TID 0000.0001) ># frequency(3) = 1.,
(PID.TID 0000.0001) >#  fields(1,4) = 'ADVx_TH ','ADVy_TH ','ADVr_TH ',
(PID.TID 0000.0001) >#                'DIFx_TH ','DIFy_TH ','DFrE_TH ',
(PID.TID 0000.0001) >#                'DFrI_TH ',
(PID.TID 0000.0001) >#                'ADVx_SLT',
(PID.TID 0000.0001) >#  filename(4) = 'flxDiag',
(PID.TID 0000.0001) ># frequency(4) = 1296000.,
(PID.TID 0000.0001) > &
(PID.TID 0000.0001) >
(PID.TID 0000.0001) ># Parameter for Diagnostics of per level statistics:
(PID.TID 0000.0001) >#-----------------
(PID.TID 0000.0001) ># for each output-stream:
(PID.TID 0000.0001) >#  stat_fname(n) : prefix of the output file name (only 8.c long) for outp.stream n
(PID.TID 0000.0001) >#  stat_freq(n):< 0 : write snap-shot output every |stat_freq| seconds
(PID.TID 0000.0001) >#               > 0 : write time-average output every stat_freq seconds
(PID.TID 0000.0001) >#  stat_phase(n)    : write at time = stat_phase + multiple of |stat_freq|
(PID.TID 0000.0001) >#  stat_region(:,n) : list of "regions" (default: 1 region only=global)
(PID.TID 0000.0001) >#  stat_fields(:,n) : list of diagnostics fields (8.c) (see "available_diagnostics.log"
(PID.TID 0000.0001) >#                 file for the list of all available diag. in this particular config)
(PID.TID 0000.0001) >#-----------------
(PID.TID 0000.0001) > &DIAG_STATIS_PARMS
(PID.TID 0000.0001) >#- regional mask: 3 lat. band: 1 : y <= -24 ; 2 : -24<y<24 ; 3 : 24 <= y
(PID.TID 0000.0001) ># diagSt_regMaskFile='regMask_lat24.bin',
(PID.TID 0000.0001) ># nSetRegMskFile=1,
(PID.TID 0000.0001) ># set_regMask(1)= 1,  1,  1,
(PID.TID 0000.0001) ># val_regMask(1)= 1., 2., 3.,
(PID.TID 0000.0001) >#---
(PID.TID 0000.0001) >#stat_fields(1,1)= 'ETAN    ','UVEL    ','VVEL    ','WVEL    ',
(PID.TID 0000.0001) >#                  'THETA   ','SALT    ','SIarea  ','SIheff  ',
(PID.TID 0000.0001) >#   stat_fname(1)= 'dynStDiag',
(PID.TID 0000.0001) >#    stat_freq(1)= 864000.,
(PID.TID 0000.0001) > &
(PID.TID 0000.0001) >
(PID.TID 0000.0001) 
(PID.TID 0000.0001) S/R DIAGNOSTICS_READPARMS, read namelist "diagnostics_list": start
(PID.TID 0000.0001) S/R DIAGNOSTICS_READPARMS, read namelist "diagnostics_list": OK
(PID.TID 0000.0001) S/R DIAGNOSTICS_READPARMS, read namelist "DIAG_STATIS_PARMS": start
(PID.TID 0000.0001) S/R DIAGNOSTICS_READPARMS, read namelist "DIAG_STATIS_PARMS": OK
(PID.TID 0000.0001)  DIAGNOSTICS_READPARMS: global parameter summary:
(PID.TID 0000.0001)  dumpAtLast = /* always write time-ave diags at the end */
(PID.TID 0000.0001)                   F
(PID.TID 0000.0001)     ;
(PID.TID 0000.0001)  diag_mnc =   /* write NetCDF output files */
(PID.TID 0000.0001)                   F
(PID.TID 0000.0001)     ;
(PID.TID 0000.0001)  useMissingValue = /* put MissingValue where mask = 0 */
(PID.TID 0000.0001)                   F
(PID.TID 0000.0001)     ;
(PID.TID 0000.0001)  diagCG_maxIters = /* max number of iters in diag_cg2d */
(PID.TID 0000.0001)                     300
(PID.TID 0000.0001)     ;
(PID.TID 0000.0001)  diagCG_resTarget = /* residual target for diag_cg2d */
(PID.TID 0000.0001)                 9.999999999999999E-12
(PID.TID 0000.0001)     ;
(PID.TID 0000.0001)  diagCG_pcOffDFac = /* preconditioner off-diagonal factor */
(PID.TID 0000.0001)                 9.611687812379854E-01
(PID.TID 0000.0001)     ;
(PID.TID 0000.0001) -----------------------------------------------------
(PID.TID 0000.0001)  DIAGNOSTICS_READPARMS: active diagnostics summary:
(PID.TID 0000.0001) -----------------------------------------------------
(PID.TID 0000.0001) Creating Output Stream: surfDiag
(PID.TID 0000.0001) Output Frequency:        300.000000 ; Phase:           0.000000
(PID.TID 0000.0001)  Averaging Freq.:        300.000000 , Phase:           0.000000 , Cycle:   1
(PID.TID 0000.0001)  missing value: -9.990000000000E+02
(PID.TID 0000.0001)  Levels:    will be set later
(PID.TID 0000.0001)  Fields:    ETAN     oceTAUX  oceTAUY  oceQnet  oceFWflx MXLDEPTH SHIfwFlx SHIhtFlx SHIgammT SHIgammS
(PID.TID 0000.0001)  Fields:    SHI_mass SHIuStar SHIRshel SHI_MEff
(PID.TID 0000.0001) Creating Output Stream: dynDiag
(PID.TID 0000.0001) Output Frequency:        300.000000 ; Phase:           0.000000
(PID.TID 0000.0001)  Averaging Freq.:        300.000000 , Phase:           0.000000 , Cycle:   1
(PID.TID 0000.0001)  missing value: -9.990000000000E+02
(PID.TID 0000.0001)  Levels:    will be set later
(PID.TID 0000.0001)  Fields:    UVEL     VVEL     WVEL     THETA    SALT     RHOAnoma CONVADJ
(PID.TID 0000.0001) Creating Output Stream: streamice
(PID.TID 0000.0001) Output Frequency:        300.000000 ; Phase:           0.000000
(PID.TID 0000.0001)  Averaging Freq.:        300.000000 , Phase:           0.000000 , Cycle:   1
(PID.TID 0000.0001)  missing value: -9.990000000000E+02
(PID.TID 0000.0001)  Levels:    will be set later
(PID.TID 0000.0001)  Fields:    SI_Uvel  SI_Vvel  SI_Thick SI_hmask SI_float
(PID.TID 0000.0001) -----------------------------------------------------
(PID.TID 0000.0001)  DIAGNOSTICS_READPARMS: statistics diags. summary:
(PID.TID 0000.0001) -----------------------------------------------------
(PID.TID 0000.0001) -----------------------------------------------------
(PID.TID 0000.0001) SET_PARMS: done
(PID.TID 0000.0001) Enter INI_VERTICAL_GRID: setInterFDr=    T ; setCenterDr=    F
(PID.TID 0000.0001) %MON XC_max                       =  -1.0518750000000E+02
(PID.TID 0000.0001) %MON XC_min                       =  -1.0543750000000E+02
(PID.TID 0000.0001) %MON XC_mean                      =  -1.0531250000000E+02
(PID.TID 0000.0001) %MON XC_sd                        =   1.0206207261597E-01
(PID.TID 0000.0001) %MON XG_max                       =  -1.0525000000000E+02
(PID.TID 0000.0001) %MON XG_min                       =  -1.0550000000000E+02
(PID.TID 0000.0001) %MON XG_mean                      =  -1.0537500000000E+02
(PID.TID 0000.0001) %MON XG_sd                        =   1.0206207261597E-01
(PID.TID 0000.0001) %MON DXC_max                      =   4.2195172956806E+03
(PID.TID 0000.0001) %MON DXC_min                      =   3.4932435587116E+03
(PID.TID 0000.0001) %MON DXC_mean                     =   3.8573295402684E+03
(PID.TID 0000.0001) %MON DXC_sd                       =   2.1019269529356E+02
(PID.TID 0000.0001) %MON DXF_max                      =   4.2195172956806E+03
(PID.TID 0000.0001) %MON DXF_min                      =   3.4932435587116E+03
(PID.TID 0000.0001) %MON DXF_mean                     =   3.8573295402684E+03
(PID.TID 0000.0001) %MON DXF_sd                       =   2.1019269529356E+02
(PID.TID 0000.0001) %MON DXG_max                      =   4.2186145466767E+03
(PID.TID 0000.0001) %MON DXG_min                      =   3.4923265038643E+03
(PID.TID 0000.0001) %MON DXG_mean                     =   3.8564194144023E+03
(PID.TID 0000.0001) %MON DXG_sd                       =   2.1019683536103E+02
(PID.TID 0000.0001) %MON DXV_max                      =   4.2186145466767E+03
(PID.TID 0000.0001) %MON DXV_min                      =   3.4923265038643E+03
(PID.TID 0000.0001) %MON DXV_mean                     =   3.8564194144023E+03
(PID.TID 0000.0001) %MON DXV_sd                       =   2.1019683536103E+02
(PID.TID 0000.0001) %MON YC_max                       =  -7.2324606250000E+01
(PID.TID 0000.0001) %MON YC_min                       =  -7.5441793750000E+01
(PID.TID 0000.0001) %MON YC_mean                      =  -7.3883199999998E+01
(PID.TID 0000.0001) %MON YC_sd                        =   9.0210697651127E-01
(PID.TID 0000.0001) %MON YG_max                       =  -7.2328512500000E+01
(PID.TID 0000.0001) %MON YG_min                       =  -7.5445700000000E+01
(PID.TID 0000.0001) %MON YG_mean                      =  -7.3887106249998E+01
(PID.TID 0000.0001) %MON YG_sd                        =   9.0210697651127E-01
(PID.TID 0000.0001) %MON DYC_max                      =   8.6857401056280E+02
(PID.TID 0000.0001) %MON DYC_min                      =   8.6857401056280E+02
(PID.TID 0000.0001) %MON DYC_mean                     =   8.6857401056282E+02
(PID.TID 0000.0001) %MON DYC_sd                       =   1.9554136088118E-11
(PID.TID 0000.0001) %MON DYF_max                      =   8.6857401056280E+02
(PID.TID 0000.0001) %MON DYF_min                      =   8.6857401056280E+02
(PID.TID 0000.0001) %MON DYF_mean                     =   8.6857401056282E+02
(PID.TID 0000.0001) %MON DYF_sd                       =   1.9554136088118E-11
(PID.TID 0000.0001) %MON DYG_max                      =   8.6857401056280E+02
(PID.TID 0000.0001) %MON DYG_min                      =   8.6857401056280E+02
(PID.TID 0000.0001) %MON DYG_mean                     =   8.6857401056282E+02
(PID.TID 0000.0001) %MON DYG_sd                       =   1.9554136088118E-11
(PID.TID 0000.0001) %MON DYU_max                      =   8.6857401056280E+02
(PID.TID 0000.0001) %MON DYU_min                      =   8.6857401056280E+02
(PID.TID 0000.0001) %MON DYU_mean                     =   8.6857401056282E+02
(PID.TID 0000.0001) %MON DYU_sd                       =   1.9554136088118E-11
(PID.TID 0000.0001) %MON RA_max                       =   3.6649630573121E+06
(PID.TID 0000.0001) %MON RA_min                       =   3.0341405653118E+06
(PID.TID 0000.0001) %MON RA_mean                      =   3.3503761862578E+06
(PID.TID 0000.0001) %MON RA_sd                        =   1.8256791220069E+05
(PID.TID 0000.0001) %MON RAW_max                      =   3.6649630573121E+06
(PID.TID 0000.0001) %MON RAW_min                      =   3.0341405653118E+06
(PID.TID 0000.0001) %MON RAW_mean                     =   3.3503761862578E+06
(PID.TID 0000.0001) %MON RAW_sd                       =   1.8256791220069E+05
(PID.TID 0000.0001) %MON RAS_max                      =   3.6641789529870E+06
(PID.TID 0000.0001) %MON RAS_min                      =   3.0333440353089E+06
(PID.TID 0000.0001) %MON RAS_mean                     =   3.3495856745848E+06
(PID.TID 0000.0001) %MON RAS_sd                       =   1.8257150815570E+05
(PID.TID 0000.0001) %MON RAZ_max                      =   3.6641789529870E+06
(PID.TID 0000.0001) %MON RAZ_min                      =   3.0333440353089E+06
(PID.TID 0000.0001) %MON RAZ_mean                     =   3.3495856745848E+06
(PID.TID 0000.0001) %MON RAZ_sd                       =   1.8257150815570E+05
(PID.TID 0000.0001) %MON AngleCS_max                  =   1.0000000000000E+00
(PID.TID 0000.0001) %MON AngleCS_min                  =   1.0000000000000E+00
(PID.TID 0000.0001) %MON AngleCS_mean                 =   1.0000000000000E+00
(PID.TID 0000.0001) %MON AngleCS_sd                   =   0.0000000000000E+00
(PID.TID 0000.0001) %MON AngleSN_max                  =   0.0000000000000E+00
(PID.TID 0000.0001) %MON AngleSN_min                  =   0.0000000000000E+00
(PID.TID 0000.0001) %MON AngleSN_mean                 =   0.0000000000000E+00
(PID.TID 0000.0001) %MON AngleSN_sd                   =   0.0000000000000E+00
(PID.TID 0000.0001)  MDS_READ_FIELD: opening global file: bathy101.box
(PID.TID 0000.0001)  MDS_READ_FIELD: opening global file: shelftopo.round.bin
(PID.TID 0000.0001) // =======================================================
(PID.TID 0000.0001) // Field Model R_low (ini_masks_etc)
(PID.TID 0000.0001) // CMIN =         -1.299000000000000E+03
(PID.TID 0000.0001) // CMAX =         -1.000000000000000E+03
(PID.TID 0000.0001) // CINT =          1.107407407407407E+01
(PID.TID 0000.0001) // SYMBOLS (CMIN->CMAX): -abcdefghijklmnopqrstuvwxyz+
(PID.TID 0000.0001) //                  0.0: .
(PID.TID 0000.0001) // RANGE I (Lo:Hi:Step):(    -2:     6:     1)
(PID.TID 0000.0001) // RANGE J (Lo:Hi:Step):(   403:    -2:    -1)
(PID.TID 0000.0001) // RANGE K (Lo:Hi:Step):(   1:   1:   1)
(PID.TID 0000.0001) // =======================================================
(PID.TID 0000.0001) K =   1
(PID.TID 0000.0001) //
(PID.TID 0000.0001) // |--J--|210123456
(PID.TID 0000.0001) //    403 ---------
(PID.TID 0000.0001) //    402 ---------
(PID.TID 0000.0001) //    401 .........
(PID.TID 0000.0001) //    400 +++++++++
(PID.TID 0000.0001) //    399 +++++++++
(PID.TID 0000.0001) //    398 +++++++++
(PID.TID 0000.0001) //    397 +++++++++
(PID.TID 0000.0001) //    396 +++++++++
(PID.TID 0000.0001) //    395 +++++++++
(PID.TID 0000.0001) //    394 +++++++++
(PID.TID 0000.0001) //    393 +++++++++
(PID.TID 0000.0001) //    392 +++++++++
(PID.TID 0000.0001) //    391 +++++++++
(PID.TID 0000.0001) //    390 +++++++++
(PID.TID 0000.0001) //    389 +++++++++
(PID.TID 0000.0001) //    388 +++++++++
(PID.TID 0000.0001) //    387 +++++++++
(PID.TID 0000.0001) //    386 +++++++++
(PID.TID 0000.0001) //    385 +++++++++
(PID.TID 0000.0001) //    384 +++++++++
(PID.TID 0000.0001) //    383 +++++++++
(PID.TID 0000.0001) //    382 +++++++++
(PID.TID 0000.0001) //    381 +++++++++
(PID.TID 0000.0001) //    380 +++++++++
(PID.TID 0000.0001) //    379 +++++++++
(PID.TID 0000.0001) //    378 +++++++++
(PID.TID 0000.0001) //    377 +++++++++
(PID.TID 0000.0001) //    376 +++++++++
(PID.TID 0000.0001) //    375 +++++++++
(PID.TID 0000.0001) //    374 +++++++++
(PID.TID 0000.0001) //    373 +++++++++
(PID.TID 0000.0001) //    372 +++++++++
(PID.TID 0000.0001) //    371 +++++++++
(PID.TID 0000.0001) //    370 +++++++++
(PID.TID 0000.0001) //    369 +++++++++
(PID.TID 0000.0001) //    368 +++++++++
(PID.TID 0000.0001) //    367 +++++++++
(PID.TID 0000.0001) //    366 +++++++++
(PID.TID 0000.0001) //    365 +++++++++
(PID.TID 0000.0001) //    364 +++++++++
(PID.TID 0000.0001) //    363 +++++++++
(PID.TID 0000.0001) //    362 +++++++++
(PID.TID 0000.0001) //    361 +++++++++
(PID.TID 0000.0001) //    360 +++++++++
(PID.TID 0000.0001) //    359 +++++++++
(PID.TID 0000.0001) //    358 +++++++++
(PID.TID 0000.0001) //    357 +++++++++
(PID.TID 0000.0001) //    356 +++++++++
(PID.TID 0000.0001) //    355 +++++++++
(PID.TID 0000.0001) //    354 +++++++++
(PID.TID 0000.0001) //    353 +++++++++
(PID.TID 0000.0001) //    352 +++++++++
(PID.TID 0000.0001) //    351 +++++++++
(PID.TID 0000.0001) //    350 +++++++++
(PID.TID 0000.0001) //    349 +++++++++
(PID.TID 0000.0001) //    348 +++++++++
(PID.TID 0000.0001) //    347 +++++++++
(PID.TID 0000.0001) //    346 +++++++++
(PID.TID 0000.0001) //    345 +++++++++
(PID.TID 0000.0001) //    344 +++++++++
(PID.TID 0000.0001) //    343 +++++++++
(PID.TID 0000.0001) //    342 +++++++++
(PID.TID 0000.0001) //    341 +++++++++
(PID.TID 0000.0001) //    340 +++++++++
(PID.TID 0000.0001) //    339 +++++++++
(PID.TID 0000.0001) //    338 +++++++++
(PID.TID 0000.0001) //    337 +++++++++
(PID.TID 0000.0001) //    336 +++++++++
(PID.TID 0000.0001) //    335 +++++++++
(PID.TID 0000.0001) //    334 +++++++++
(PID.TID 0000.0001) //    333 +++++++++
(PID.TID 0000.0001) //    332 +++++++++
(PID.TID 0000.0001) //    331 +++++++++
(PID.TID 0000.0001) //    330 +++++++++
(PID.TID 0000.0001) //    329 +++++++++
(PID.TID 0000.0001) //    328 +++++++++
(PID.TID 0000.0001) //    327 +++++++++
(PID.TID 0000.0001) //    326 +++++++++
(PID.TID 0000.0001) //    325 +++++++++
(PID.TID 0000.0001) //    324 +++++++++
(PID.TID 0000.0001) //    323 +++++++++
(PID.TID 0000.0001) //    322 +++++++++
(PID.TID 0000.0001) //    321 +++++++++
(PID.TID 0000.0001) //    320 +++++++++
(PID.TID 0000.0001) //    319 +++++++++
(PID.TID 0000.0001) //    318 +++++++++
(PID.TID 0000.0001) //    317 +++++++++
(PID.TID 0000.0001) //    316 +++++++++
(PID.TID 0000.0001) //    315 +++++++++
(PID.TID 0000.0001) //    314 +++++++++
(PID.TID 0000.0001) //    313 +++++++++
(PID.TID 0000.0001) //    312 +++++++++
(PID.TID 0000.0001) //    311 +++++++++
(PID.TID 0000.0001) //    310 +++++++++
(PID.TID 0000.0001) //    309 +++++++++
(PID.TID 0000.0001) //    308 +++++++++
(PID.TID 0000.0001) //    307 +++++++++
(PID.TID 0000.0001) //    306 +++++++++
(PID.TID 0000.0001) //    305 +++++++++
(PID.TID 0000.0001) //    304 +++++++++
(PID.TID 0000.0001) //    303 +++++++++
(PID.TID 0000.0001) //    302 +++++++++
(PID.TID 0000.0001) //    301 +++++++++
(PID.TID 0000.0001) //    300 +++++++++
(PID.TID 0000.0001) //    299 +++++++++
(PID.TID 0000.0001) //    298 +++++++++
(PID.TID 0000.0001) //    297 +++++++++
(PID.TID 0000.0001) //    296 +++++++++
(PID.TID 0000.0001) //    295 zzzzzzzzz
(PID.TID 0000.0001) //    294 zzzzzzzzz
(PID.TID 0000.0001) //    293 zzzzzzzzz
(PID.TID 0000.0001) //    292 zzzzzzzzz
(PID.TID 0000.0001) //    291 zzzzzzzzz
(PID.TID 0000.0001) //    290 zzzzzzzzz
(PID.TID 0000.0001) //    289 zzzzzzzzz
(PID.TID 0000.0001) //    288 zzzzzzzzz
(PID.TID 0000.0001) //    287 zzzzzzzzz
(PID.TID 0000.0001) //    286 zzzzzzzzz
(PID.TID 0000.0001) //    285 zzzzzzzzz
(PID.TID 0000.0001) //    284 yyyyyyyyy
(PID.TID 0000.0001) //    283 yyyyyyyyy
(PID.TID 0000.0001) //    282 yyyyyyyyy
(PID.TID 0000.0001) //    281 yyyyyyyyy
(PID.TID 0000.0001) //    280 yyyyyyyyy
(PID.TID 0000.0001) //    279 yyyyyyyyy
(PID.TID 0000.0001) //    278 yyyyyyyyy
(PID.TID 0000.0001) //    277 yyyyyyyyy
(PID.TID 0000.0001) //    276 yyyyyyyyy
(PID.TID 0000.0001) //    275 yyyyyyyyy
(PID.TID 0000.0001) //    274 yyyyyyyyy
(PID.TID 0000.0001) //    273 xxxxxxxxx
(PID.TID 0000.0001) //    272 xxxxxxxxx
(PID.TID 0000.0001) //    271 xxxxxxxxx
(PID.TID 0000.0001) //    270 xxxxxxxxx
(PID.TID 0000.0001) //    269 xxxxxxxxx
(PID.TID 0000.0001) //    268 xxxxxxxxx
(PID.TID 0000.0001) //    267 xxxxxxxxx
(PID.TID 0000.0001) //    266 xxxxxxxxx
(PID.TID 0000.0001) //    265 xxxxxxxxx
(PID.TID 0000.0001) //    264 xxxxxxxxx
(PID.TID 0000.0001) //    263 xxxxxxxxx
(PID.TID 0000.0001) //    262 wwwwwwwww
(PID.TID 0000.0001) //    261 wwwwwwwww
(PID.TID 0000.0001) //    260 wwwwwwwww
(PID.TID 0000.0001) //    259 wwwwwwwww
(PID.TID 0000.0001) //    258 wwwwwwwww
(PID.TID 0000.0001) //    257 wwwwwwwww
(PID.TID 0000.0001) //    256 wwwwwwwww
(PID.TID 0000.0001) //    255 wwwwwwwww
(PID.TID 0000.0001) //    254 wwwwwwwww
(PID.TID 0000.0001) //    253 wwwwwwwww
(PID.TID 0000.0001) //    252 wwwwwwwww
(PID.TID 0000.0001) //    251 vvvvvvvvv
(PID.TID 0000.0001) //    250 vvvvvvvvv
(PID.TID 0000.0001) //    249 vvvvvvvvv
(PID.TID 0000.0001) //    248 vvvvvvvvv
(PID.TID 0000.0001) //    247 vvvvvvvvv
(PID.TID 0000.0001) //    246 vvvvvvvvv
(PID.TID 0000.0001) //    245 vvvvvvvvv
(PID.TID 0000.0001) //    244 vvvvvvvvv
(PID.TID 0000.0001) //    243 vvvvvvvvv
(PID.TID 0000.0001) //    242 vvvvvvvvv
(PID.TID 0000.0001) //    241 vvvvvvvvv
(PID.TID 0000.0001) //    240 uuuuuuuuu
(PID.TID 0000.0001) //    239 uuuuuuuuu
(PID.TID 0000.0001) //    238 uuuuuuuuu
(PID.TID 0000.0001) //    237 uuuuuuuuu
(PID.TID 0000.0001) //    236 uuuuuuuuu
(PID.TID 0000.0001) //    235 uuuuuuuuu
(PID.TID 0000.0001) //    234 uuuuuuuuu
(PID.TID 0000.0001) //    233 uuuuuuuuu
(PID.TID 0000.0001) //    232 uuuuuuuuu
(PID.TID 0000.0001) //    231 uuuuuuuuu
(PID.TID 0000.0001) //    230 ttttttttt
(PID.TID 0000.0001) //    229 ttttttttt
(PID.TID 0000.0001) //    228 ttttttttt
(PID.TID 0000.0001) //    227 ttttttttt
(PID.TID 0000.0001) //    226 ttttttttt
(PID.TID 0000.0001) //    225 ttttttttt
(PID.TID 0000.0001) //    224 ttttttttt
(PID.TID 0000.0001) //    223 ttttttttt
(PID.TID 0000.0001) //    222 ttttttttt
(PID.TID 0000.0001) //    221 ttttttttt
(PID.TID 0000.0001) //    220 ttttttttt
(PID.TID 0000.0001) //    219 ttttttttt
(PID.TID 0000.0001) //    218 ttttttttt
(PID.TID 0000.0001) //    217 sssssssss
(PID.TID 0000.0001) //    216 sssssssss
(PID.TID 0000.0001) //    215 sssssssss
(PID.TID 0000.0001) //    214 sssssssss
(PID.TID 0000.0001) //    213 sssssssss
(PID.TID 0000.0001) //    212 sssssssss
(PID.TID 0000.0001) //    211 sssssssss
(PID.TID 0000.0001) //    210 sssssssss
(PID.TID 0000.0001) //    209 sssssssss
(PID.TID 0000.0001) //    208 sssssssss
(PID.TID 0000.0001) //    207 sssssssss
(PID.TID 0000.0001) //    206 rrrrrrrrr
(PID.TID 0000.0001) //    205 rrrrrrrrr
(PID.TID 0000.0001) //    204 rrrrrrrrr
(PID.TID 0000.0001) //    203 rrrrrrrrr
(PID.TID 0000.0001) //    202 rrrrrrrrr
(PID.TID 0000.0001) //    201 rrrrrrrrr
(PID.TID 0000.0001) //    200 rrrrrrrrr
(PID.TID 0000.0001) //    199 rrrrrrrrr
(PID.TID 0000.0001) //    198 rrrrrrrrr
(PID.TID 0000.0001) //    197 rrrrrrrrr
(PID.TID 0000.0001) //    196 rrrrrrrrr
(PID.TID 0000.0001) //    195 qqqqqqqqq
(PID.TID 0000.0001) //    194 qqqqqqqqq
(PID.TID 0000.0001) //    193 qqqqqqqqq
(PID.TID 0000.0001) //    192 qqqqqqqqq
(PID.TID 0000.0001) //    191 qqqqqqqqq
(PID.TID 0000.0001) //    190 qqqqqqqqq
(PID.TID 0000.0001) //    189 qqqqqqqqq
(PID.TID 0000.0001) //    188 qqqqqqqqq
(PID.TID 0000.0001) //    187 qqqqqqqqq
(PID.TID 0000.0001) //    186 qqqqqqqqq
(PID.TID 0000.0001) //    185 qqqqqqqqq
(PID.TID 0000.0001) //    184 ppppppppp
(PID.TID 0000.0001) //    183 ppppppppp
(PID.TID 0000.0001) //    182 ppppppppp
(PID.TID 0000.0001) //    181 ppppppppp
(PID.TID 0000.0001) //    180 ppppppppp
(PID.TID 0000.0001) //    179 ppppppppp
(PID.TID 0000.0001) //    178 ppppppppp
(PID.TID 0000.0001) //    177 ppppppppp
(PID.TID 0000.0001) //    176 ppppppppp
(PID.TID 0000.0001) //    175 ppppppppp
(PID.TID 0000.0001) //    174 ppppppppp
(PID.TID 0000.0001) //    173 ooooooooo
(PID.TID 0000.0001) //    172 ooooooooo
(PID.TID 0000.0001) //    171 ooooooooo
(PID.TID 0000.0001) //    170 ooooooooo
(PID.TID 0000.0001) //    169 ooooooooo
(PID.TID 0000.0001) //    168 ooooooooo
(PID.TID 0000.0001) //    167 ooooooooo
(PID.TID 0000.0001) //    166 ooooooooo
(PID.TID 0000.0001) //    165 ooooooooo
(PID.TID 0000.0001) //    164 ooooooooo
(PID.TID 0000.0001) //    163 ooooooooo
(PID.TID 0000.0001) //    162 nnnnnnnnn
(PID.TID 0000.0001) //    161 nnnnnnnnn
(PID.TID 0000.0001) //    160 nnnnnnnnn
(PID.TID 0000.0001) //    159 nnnnnnnnn
(PID.TID 0000.0001) //    158 nnnnnnnnn
(PID.TID 0000.0001) //    157 nnnnnnnnn
(PID.TID 0000.0001) //    156 nnnnnnnnn
(PID.TID 0000.0001) //    155 nnnnnnnnn
(PID.TID 0000.0001) //    154 nnnnnnnnn
(PID.TID 0000.0001) //    153 nnnnnnnnn
(PID.TID 0000.0001) //    152 nnnnnnnnn
(PID.TID 0000.0001) //    151 mmmmmmmmm
(PID.TID 0000.0001) //    150 mmmmmmmmm
(PID.TID 0000.0001) //    149 mmmmmmmmm
(PID.TID 0000.0001) //    148 mmmmmmmmm
(PID.TID 0000.0001) //    147 mmmmmmmmm
(PID.TID 0000.0001) //    146 mmmmmmmmm
(PID.TID 0000.0001) //    145 mmmmmmmmm
(PID.TID 0000.0001) //    144 mmmmmmmmm
(PID.TID 0000.0001) //    143 mmmmmmmmm
(PID.TID 0000.0001) //    142 mmmmmmmmm
(PID.TID 0000.0001) //    141 mmmmmmmmm
(PID.TID 0000.0001) //    140 lllllllll
(PID.TID 0000.0001) //    139 lllllllll
(PID.TID 0000.0001) //    138 lllllllll
(PID.TID 0000.0001) //    137 lllllllll
(PID.TID 0000.0001) //    136 lllllllll
(PID.TID 0000.0001) //    135 lllllllll
(PID.TID 0000.0001) //    134 lllllllll
(PID.TID 0000.0001) //    133 lllllllll
(PID.TID 0000.0001) //    132 lllllllll
(PID.TID 0000.0001) //    131 lllllllll
(PID.TID 0000.0001) //    130 kkkkkkkkk
(PID.TID 0000.0001) //    129 kkkkkkkkk
(PID.TID 0000.0001) //    128 kkkkkkkkk
(PID.TID 0000.0001) //    127 kkkkkkkkk
(PID.TID 0000.0001) //    126 kkkkkkkkk
(PID.TID 0000.0001) //    125 kkkkkkkkk
(PID.TID 0000.0001) //    124 kkkkkkkkk
(PID.TID 0000.0001) //    123 kkkkkkkkk
(PID.TID 0000.0001) //    122 kkkkkkkkk
(PID.TID 0000.0001) //    121 kkkkkkkkk
(PID.TID 0000.0001) //    120 kkkkkkkkk
(PID.TID 0000.0001) //    119 kkkkkkkkk
(PID.TID 0000.0001) //    118 jjjjjjjjj
(PID.TID 0000.0001) //    117 jjjjjjjjj
(PID.TID 0000.0001) //    116 jjjjjjjjj
(PID.TID 0000.0001) //    115 jjjjjjjjj
(PID.TID 0000.0001) //    114 jjjjjjjjj
(PID.TID 0000.0001) //    113 jjjjjjjjj
(PID.TID 0000.0001) //    112 jjjjjjjjj
(PID.TID 0000.0001) //    111 jjjjjjjjj
(PID.TID 0000.0001) //    110 jjjjjjjjj
(PID.TID 0000.0001) //    109 jjjjjjjjj
(PID.TID 0000.0001) //    108 jjjjjjjjj
(PID.TID 0000.0001) //    107 iiiiiiiii
(PID.TID 0000.0001) //    106 iiiiiiiii
(PID.TID 0000.0001) //    105 iiiiiiiii
(PID.TID 0000.0001) //    104 iiiiiiiii
(PID.TID 0000.0001) //    103 iiiiiiiii
(PID.TID 0000.0001) //    102 iiiiiiiii
(PID.TID 0000.0001) //    101 iiiiiiiii
(PID.TID 0000.0001) //    100 iiiiiiiii
(PID.TID 0000.0001) //     99 iiiiiiiii
(PID.TID 0000.0001) //     98 iiiiiiiii
(PID.TID 0000.0001) //     97 iiiiiiiii
(PID.TID 0000.0001) //     96 hhhhhhhhh
(PID.TID 0000.0001) //     95 hhhhhhhhh
(PID.TID 0000.0001) //     94 hhhhhhhhh
(PID.TID 0000.0001) //     93 hhhhhhhhh
(PID.TID 0000.0001) //     92 hhhhhhhhh
(PID.TID 0000.0001) //     91 hhhhhhhhh
(PID.TID 0000.0001) //     90 hhhhhhhhh
(PID.TID 0000.0001) //     89 hhhhhhhhh
(PID.TID 0000.0001) //     88 hhhhhhhhh
(PID.TID 0000.0001) //     87 hhhhhhhhh
(PID.TID 0000.0001) //     86 hhhhhhhhh
(PID.TID 0000.0001) //     85 ggggggggg
(PID.TID 0000.0001) //     84 ggggggggg
(PID.TID 0000.0001) //     83 ggggggggg
(PID.TID 0000.0001) //     82 ggggggggg
(PID.TID 0000.0001) //     81 ggggggggg
(PID.TID 0000.0001) //     80 ggggggggg
(PID.TID 0000.0001) //     79 ggggggggg
(PID.TID 0000.0001) //     78 ggggggggg
(PID.TID 0000.0001) //     77 ggggggggg
(PID.TID 0000.0001) //     76 ggggggggg
(PID.TID 0000.0001) //     75 ggggggggg
(PID.TID 0000.0001) //     74 ggggggggg
(PID.TID 0000.0001) //     73 fffffffff
(PID.TID 0000.0001) //     72 fffffffff
(PID.TID 0000.0001) //     71 fffffffff
(PID.TID 0000.0001) //     70 fffffffff
(PID.TID 0000.0001) //     69 fffffffff
(PID.TID 0000.0001) //     68 fffffffff
(PID.TID 0000.0001) //     67 fffffffff
(PID.TID 0000.0001) //     66 fffffffff
(PID.TID 0000.0001) //     65 fffffffff
(PID.TID 0000.0001) //     64 fffffffff
(PID.TID 0000.0001) //     63 fffffffff
(PID.TID 0000.0001) //     62 eeeeeeeee
(PID.TID 0000.0001) //     61 eeeeeeeee
(PID.TID 0000.0001) //     60 eeeeeeeee
(PID.TID 0000.0001) //     59 eeeeeeeee
(PID.TID 0000.0001) //     58 eeeeeeeee
(PID.TID 0000.0001) //     57 eeeeeeeee
(PID.TID 0000.0001) //     56 eeeeeeeee
(PID.TID 0000.0001) //     55 eeeeeeeee
(PID.TID 0000.0001) //     54 eeeeeeeee
(PID.TID 0000.0001) //     53 eeeeeeeee
(PID.TID 0000.0001) //     52 eeeeeeeee
(PID.TID 0000.0001) //     51 ddddddddd
(PID.TID 0000.0001) //     50 ddddddddd
(PID.TID 0000.0001) //     49 ddddddddd
(PID.TID 0000.0001) //     48 ddddddddd
(PID.TID 0000.0001) //     47 ddddddddd
(PID.TID 0000.0001) //     46 ddddddddd
(PID.TID 0000.0001) //     45 ddddddddd
(PID.TID 0000.0001) //     44 ddddddddd
(PID.TID 0000.0001) //     43 ddddddddd
(PID.TID 0000.0001) //     42 ddddddddd
(PID.TID 0000.0001) //     41 ddddddddd
(PID.TID 0000.0001) //     40 ccccccccc
(PID.TID 0000.0001) //     39 ccccccccc
(PID.TID 0000.0001) //     38 ccccccccc
(PID.TID 0000.0001) //     37 ccccccccc
(PID.TID 0000.0001) //     36 ccccccccc
(PID.TID 0000.0001) //     35 ccccccccc
(PID.TID 0000.0001) //     34 ccccccccc
(PID.TID 0000.0001) //     33 ccccccccc
(PID.TID 0000.0001) //     32 ccccccccc
(PID.TID 0000.0001) //     31 ccccccccc
(PID.TID 0000.0001) //     30 bbbbbbbbb
(PID.TID 0000.0001) //     29 bbbbbbbbb
(PID.TID 0000.0001) //     28 bbbbbbbbb
(PID.TID 0000.0001) //     27 bbbbbbbbb
(PID.TID 0000.0001) //     26 bbbbbbbbb
(PID.TID 0000.0001) //     25 bbbbbbbbb
(PID.TID 0000.0001) //     24 bbbbbbbbb
(PID.TID 0000.0001) //     23 bbbbbbbbb
(PID.TID 0000.0001) //     22 bbbbbbbbb
(PID.TID 0000.0001) //     21 bbbbbbbbb
(PID.TID 0000.0001) //     20 bbbbbbbbb
(PID.TID 0000.0001) //     19 bbbbbbbbb
(PID.TID 0000.0001) //     18 aaaaaaaaa
(PID.TID 0000.0001) //     17 aaaaaaaaa
(PID.TID 0000.0001) //     16 aaaaaaaaa
(PID.TID 0000.0001) //     15 aaaaaaaaa
(PID.TID 0000.0001) //     14 aaaaaaaaa
(PID.TID 0000.0001) //     13 aaaaaaaaa
(PID.TID 0000.0001) //     12 aaaaaaaaa
(PID.TID 0000.0001) //     11 aaaaaaaaa
(PID.TID 0000.0001) //     10 aaaaaaaaa
(PID.TID 0000.0001) //      9 aaaaaaaaa
(PID.TID 0000.0001) //      8 aaaaaaaaa
(PID.TID 0000.0001) //      7 ---------
(PID.TID 0000.0001) //      6 ---------
(PID.TID 0000.0001) //      5 ---------
(PID.TID 0000.0001) //      4 ---------
(PID.TID 0000.0001) //      3 ---------
(PID.TID 0000.0001) //      2 ---------
(PID.TID 0000.0001) //      1 .........
(PID.TID 0000.0001) //      0 +++++++++
(PID.TID 0000.0001) //     -1 +++++++++
(PID.TID 0000.0001) //     -2 +++++++++
(PID.TID 0000.0001) // =======================================================
(PID.TID 0000.0001) // END OF FIELD                                          =
(PID.TID 0000.0001) // =======================================================
(PID.TID 0000.0001) 
(PID.TID 0000.0001) // =======================================================
(PID.TID 0000.0001) // Field Model Ro_surf (ini_masks_etc)
(PID.TID 0000.0001) // CMIN =         -1.290000000000000E+03
(PID.TID 0000.0001) // CMAX =         -4.600000000000000E+02
(PID.TID 0000.0001) // CINT =          3.074074074074074E+01
(PID.TID 0000.0001) // SYMBOLS (CMIN->CMAX): -abcdefghijklmnopqrstuvwxyz+
(PID.TID 0000.0001) //                  0.0: .
(PID.TID 0000.0001) // RANGE I (Lo:Hi:Step):(    -2:     6:     1)
(PID.TID 0000.0001) // RANGE J (Lo:Hi:Step):(   403:    -2:    -1)
(PID.TID 0000.0001) // RANGE K (Lo:Hi:Step):(   1:   1:   1)
(PID.TID 0000.0001) // =======================================================
(PID.TID 0000.0001) K =   1
(PID.TID 0000.0001) //
(PID.TID 0000.0001) // |--J--|210123456
(PID.TID 0000.0001) //    403 ---------
(PID.TID 0000.0001) //    402 ---------
(PID.TID 0000.0001) //    401 .........
(PID.TID 0000.0001) //    400 .........
(PID.TID 0000.0001) //    399 .........
(PID.TID 0000.0001) //    398 .........
(PID.TID 0000.0001) //    397 .........
(PID.TID 0000.0001) //    396 .........
(PID.TID 0000.0001) //    395 .........
(PID.TID 0000.0001) //    394 .........
(PID.TID 0000.0001) //    393 .........
(PID.TID 0000.0001) //    392 .........
(PID.TID 0000.0001) //    391 .........
(PID.TID 0000.0001) //    390 .........
(PID.TID 0000.0001) //    389 .........
(PID.TID 0000.0001) //    388 .........
(PID.TID 0000.0001) //    387 .........
(PID.TID 0000.0001) //    386 .........
(PID.TID 0000.0001) //    385 .........
(PID.TID 0000.0001) //    384 .........
(PID.TID 0000.0001) //    383 .........
(PID.TID 0000.0001) //    382 .........
(PID.TID 0000.0001) //    381 .........
(PID.TID 0000.0001) //    380 .........
(PID.TID 0000.0001) //    379 .........
(PID.TID 0000.0001) //    378 .........
(PID.TID 0000.0001) //    377 .........
(PID.TID 0000.0001) //    376 .........
(PID.TID 0000.0001) //    375 .........
(PID.TID 0000.0001) //    374 .........
(PID.TID 0000.0001) //    373 .........
(PID.TID 0000.0001) //    372 .........
(PID.TID 0000.0001) //    371 .........
(PID.TID 0000.0001) //    370 .........
(PID.TID 0000.0001) //    369 .........
(PID.TID 0000.0001) //    368 .........
(PID.TID 0000.0001) //    367 .........
(PID.TID 0000.0001) //    366 .........
(PID.TID 0000.0001) //    365 .........
(PID.TID 0000.0001) //    364 .........
(PID.TID 0000.0001) //    363 .........
(PID.TID 0000.0001) //    362 .........
(PID.TID 0000.0001) //    361 .........
(PID.TID 0000.0001) //    360 .........
(PID.TID 0000.0001) //    359 .........
(PID.TID 0000.0001) //    358 .........
(PID.TID 0000.0001) //    357 .........
(PID.TID 0000.0001) //    356 .........
(PID.TID 0000.0001) //    355 .........
(PID.TID 0000.0001) //    354 .........
(PID.TID 0000.0001) //    353 .........
(PID.TID 0000.0001) //    352 .........
(PID.TID 0000.0001) //    351 .........
(PID.TID 0000.0001) //    350 .........
(PID.TID 0000.0001) //    349 .........
(PID.TID 0000.0001) //    348 .........
(PID.TID 0000.0001) //    347 .........
(PID.TID 0000.0001) //    346 .........
(PID.TID 0000.0001) //    345 .........
(PID.TID 0000.0001) //    344 .........
(PID.TID 0000.0001) //    343 .........
(PID.TID 0000.0001) //    342 .........
(PID.TID 0000.0001) //    341 .........
(PID.TID 0000.0001) //    340 .........
(PID.TID 0000.0001) //    339 .........
(PID.TID 0000.0001) //    338 .........
(PID.TID 0000.0001) //    337 .........
(PID.TID 0000.0001) //    336 .........
(PID.TID 0000.0001) //    335 .........
(PID.TID 0000.0001) //    334 .........
(PID.TID 0000.0001) //    333 .........
(PID.TID 0000.0001) //    332 .........
(PID.TID 0000.0001) //    331 .........
(PID.TID 0000.0001) //    330 .........
(PID.TID 0000.0001) //    329 .........
(PID.TID 0000.0001) //    328 .........
(PID.TID 0000.0001) //    327 .........
(PID.TID 0000.0001) //    326 .........
(PID.TID 0000.0001) //    325 .........
(PID.TID 0000.0001) //    324 .........
(PID.TID 0000.0001) //    323 .........
(PID.TID 0000.0001) //    322 .........
(PID.TID 0000.0001) //    321 .........
(PID.TID 0000.0001) //    320 .........
(PID.TID 0000.0001) //    319 .........
(PID.TID 0000.0001) //    318 .........
(PID.TID 0000.0001) //    317 .........
(PID.TID 0000.0001) //    316 .........
(PID.TID 0000.0001) //    315 .........
(PID.TID 0000.0001) //    314 .........
(PID.TID 0000.0001) //    313 .........
(PID.TID 0000.0001) //    312 .........
(PID.TID 0000.0001) //    311 .........
(PID.TID 0000.0001) //    310 .........
(PID.TID 0000.0001) //    309 .........
(PID.TID 0000.0001) //    308 .........
(PID.TID 0000.0001) //    307 .........
(PID.TID 0000.0001) //    306 .........
(PID.TID 0000.0001) //    305 .........
(PID.TID 0000.0001) //    304 .........
(PID.TID 0000.0001) //    303 .........
(PID.TID 0000.0001) //    302 .........
(PID.TID 0000.0001) //    301 .........
(PID.TID 0000.0001) //    300 +++++++++
(PID.TID 0000.0001) //    299 +++++++++
(PID.TID 0000.0001) //    298 zzzzzzzzz
(PID.TID 0000.0001) //    297 zzzzzzzzz
(PID.TID 0000.0001) //    296 zzzzzzzzz
(PID.TID 0000.0001) //    295 zzzzzzzzz
(PID.TID 0000.0001) //    294 yyyyyyyyy
(PID.TID 0000.0001) //    293 yyyyyyyyy
(PID.TID 0000.0001) //    292 yyyyyyyyy
(PID.TID 0000.0001) //    291 yyyyyyyyy
(PID.TID 0000.0001) //    290 xxxxxxxxx
(PID.TID 0000.0001) //    289 xxxxxxxxx
(PID.TID 0000.0001) //    288 xxxxxxxxx
(PID.TID 0000.0001) //    287 xxxxxxxxx
(PID.TID 0000.0001) //    286 wwwwwwwww
(PID.TID 0000.0001) //    285 wwwwwwwww
(PID.TID 0000.0001) //    284 wwwwwwwww
(PID.TID 0000.0001) //    283 wwwwwwwww
(PID.TID 0000.0001) //    282 vvvvvvvvv
(PID.TID 0000.0001) //    281 vvvvvvvvv
(PID.TID 0000.0001) //    280 vvvvvvvvv
(PID.TID 0000.0001) //    279 vvvvvvvvv
(PID.TID 0000.0001) //    278 uuuuuuuuu
(PID.TID 0000.0001) //    277 uuuuuuuuu
(PID.TID 0000.0001) //    276 uuuuuuuuu
(PID.TID 0000.0001) //    275 uuuuuuuuu
(PID.TID 0000.0001) //    274 ttttttttt
(PID.TID 0000.0001) //    273 ttttttttt
(PID.TID 0000.0001) //    272 ttttttttt
(PID.TID 0000.0001) //    271 ttttttttt
(PID.TID 0000.0001) //    270 ttttttttt
(PID.TID 0000.0001) //    269 ttttttttt
(PID.TID 0000.0001) //    268 sssssssss
(PID.TID 0000.0001) //    267 sssssssss
(PID.TID 0000.0001) //    266 sssssssss
(PID.TID 0000.0001) //    265 sssssssss
(PID.TID 0000.0001) //    264 rrrrrrrrr
(PID.TID 0000.0001) //    263 rrrrrrrrr
(PID.TID 0000.0001) //    262 rrrrrrrrr
(PID.TID 0000.0001) //    261 rrrrrrrrr
(PID.TID 0000.0001) //    260 rrrrrrrrr
(PID.TID 0000.0001) //    259 qqqqqqqqq
(PID.TID 0000.0001) //    258 qqqqqqqqq
(PID.TID 0000.0001) //    257 qqqqqqqqq
(PID.TID 0000.0001) //    256 qqqqqqqqq
(PID.TID 0000.0001) //    255 ppppppppp
(PID.TID 0000.0001) //    254 ppppppppp
(PID.TID 0000.0001) //    253 ppppppppp
(PID.TID 0000.0001) //    252 ppppppppp
(PID.TID 0000.0001) //    251 ppppppppp
(PID.TID 0000.0001) //    250 ooooooooo
(PID.TID 0000.0001) //    249 ooooooooo
(PID.TID 0000.0001) //    248 ooooooooo
(PID.TID 0000.0001) //    247 ooooooooo
(PID.TID 0000.0001) //    246 ooooooooo
(PID.TID 0000.0001) //    245 nnnnnnnnn
(PID.TID 0000.0001) //    244 nnnnnnnnn
(PID.TID 0000.0001) //    243 nnnnnnnnn
(PID.TID 0000.0001) //    242 nnnnnnnnn
(PID.TID 0000.0001) //    241 mmmmmmmmm
(PID.TID 0000.0001) //    240 mmmmmmmmm
(PID.TID 0000.0001) //    239 mmmmmmmmm
(PID.TID 0000.0001) //    238 mmmmmmmmm
(PID.TID 0000.0001) //    237 mmmmmmmmm
(PID.TID 0000.0001) //    236 lllllllll
(PID.TID 0000.0001) //    235 lllllllll
(PID.TID 0000.0001) //    234 lllllllll
(PID.TID 0000.0001) //    233 lllllllll
(PID.TID 0000.0001) //    232 lllllllll
(PID.TID 0000.0001) //    231 kkkkkkkkk
(PID.TID 0000.0001) //    230 kkkkkkkkk
(PID.TID 0000.0001) //    229 kkkkkkkkk
(PID.TID 0000.0001) //    228 kkkkkkkkk
(PID.TID 0000.0001) //    227 kkkkkkkkk
(PID.TID 0000.0001) //    226 jjjjjjjjj
(PID.TID 0000.0001) //    225 jjjjjjjjj
(PID.TID 0000.0001) //    224 jjjjjjjjj
(PID.TID 0000.0001) //    223 jjjjjjjjj
(PID.TID 0000.0001) //    222 jjjjjjjjj
(PID.TID 0000.0001) //    221 iiiiiiiii
(PID.TID 0000.0001) //    220 iiiiiiiii
(PID.TID 0000.0001) //    219 iiiiiiiii
(PID.TID 0000.0001) //    218 iiiiiiiii
(PID.TID 0000.0001) //    217 iiiiiiiii
(PID.TID 0000.0001) //    216 hhhhhhhhh
(PID.TID 0000.0001) //    215 hhhhhhhhh
(PID.TID 0000.0001) //    214 hhhhhhhhh
(PID.TID 0000.0001) //    213 hhhhhhhhh
(PID.TID 0000.0001) //    212 hhhhhhhhh
(PID.TID 0000.0001) //    211 hhhhhhhhh
(PID.TID 0000.0001) //    210 ggggggggg
(PID.TID 0000.0001) //    209 ggggggggg
(PID.TID 0000.0001) //    208 ggggggggg
(PID.TID 0000.0001) //    207 ggggggggg
(PID.TID 0000.0001) //    206 ggggggggg
(PID.TID 0000.0001) //    205 ggggggggg
(PID.TID 0000.0001) //    204 ggggggggg
(PID.TID 0000.0001) //    203 ggggggggg
(PID.TID 0000.0001) //    202 ggggggggg
(PID.TID 0000.0001) //    201 ggggggggg
(PID.TID 0000.0001) //    200 ggggggggg
(PID.TID 0000.0001) //    199 fffffffff
(PID.TID 0000.0001) //    198 fffffffff
(PID.TID 0000.0001) //    197 fffffffff
(PID.TID 0000.0001) //    196 fffffffff
(PID.TID 0000.0001) //    195 fffffffff
(PID.TID 0000.0001) //    194 fffffffff
(PID.TID 0000.0001) //    193 fffffffff
(PID.TID 0000.0001) //    192 fffffffff
(PID.TID 0000.0001) //    191 fffffffff
(PID.TID 0000.0001) //    190 fffffffff
(PID.TID 0000.0001) //    189 fffffffff
(PID.TID 0000.0001) //    188 fffffffff
(PID.TID 0000.0001) //    187 fffffffff
(PID.TID 0000.0001) //    186 fffffffff
(PID.TID 0000.0001) //    185 fffffffff
(PID.TID 0000.0001) //    184 fffffffff
(PID.TID 0000.0001) //    183 fffffffff
(PID.TID 0000.0001) //    182 fffffffff
(PID.TID 0000.0001) //    181 fffffffff
(PID.TID 0000.0001) //    180 fffffffff
(PID.TID 0000.0001) //    179 fffffffff
(PID.TID 0000.0001) //    178 fffffffff
(PID.TID 0000.0001) //    177 fffffffff
(PID.TID 0000.0001) //    176 fffffffff
(PID.TID 0000.0001) //    175 fffffffff
(PID.TID 0000.0001) //    174 fffffffff
(PID.TID 0000.0001) //    173 fffffffff
(PID.TID 0000.0001) //    172 fffffffff
(PID.TID 0000.0001) //    171 fffffffff
(PID.TID 0000.0001) //    170 eeeeeeeee
(PID.TID 0000.0001) //    169 eeeeeeeee
(PID.TID 0000.0001) //    168 eeeeeeeee
(PID.TID 0000.0001) //    167 eeeeeeeee
(PID.TID 0000.0001) //    166 eeeeeeeee
(PID.TID 0000.0001) //    165 eeeeeeeee
(PID.TID 0000.0001) //    164 eeeeeeeee
(PID.TID 0000.0001) //    163 eeeeeeeee
(PID.TID 0000.0001) //    162 eeeeeeeee
(PID.TID 0000.0001) //    161 eeeeeeeee
(PID.TID 0000.0001) //    160 eeeeeeeee
(PID.TID 0000.0001) //    159 eeeeeeeee
(PID.TID 0000.0001) //    158 eeeeeeeee
(PID.TID 0000.0001) //    157 eeeeeeeee
(PID.TID 0000.0001) //    156 eeeeeeeee
(PID.TID 0000.0001) //    155 eeeeeeeee
(PID.TID 0000.0001) //    154 eeeeeeeee
(PID.TID 0000.0001) //    153 eeeeeeeee
(PID.TID 0000.0001) //    152 eeeeeeeee
(PID.TID 0000.0001) //    151 eeeeeeeee
(PID.TID 0000.0001) //    150 eeeeeeeee
(PID.TID 0000.0001) //    149 eeeeeeeee
(PID.TID 0000.0001) //    148 eeeeeeeee
(PID.TID 0000.0001) //    147 eeeeeeeee
(PID.TID 0000.0001) //    146 eeeeeeeee
(PID.TID 0000.0001) //    145 eeeeeeeee
(PID.TID 0000.0001) //    144 eeeeeeeee
(PID.TID 0000.0001) //    143 eeeeeeeee
(PID.TID 0000.0001) //    142 eeeeeeeee
(PID.TID 0000.0001) //    141 eeeeeeeee
(PID.TID 0000.0001) //    140 ddddddddd
(PID.TID 0000.0001) //    139 ddddddddd
(PID.TID 0000.0001) //    138 ddddddddd
(PID.TID 0000.0001) //    137 ddddddddd
(PID.TID 0000.0001) //    136 ddddddddd
(PID.TID 0000.0001) //    135 ddddddddd
(PID.TID 0000.0001) //    134 ddddddddd
(PID.TID 0000.0001) //    133 ddddddddd
(PID.TID 0000.0001) //    132 ddddddddd
(PID.TID 0000.0001) //    131 ddddddddd
(PID.TID 0000.0001) //    130 ddddddddd
(PID.TID 0000.0001) //    129 ddddddddd
(PID.TID 0000.0001) //    128 ddddddddd
(PID.TID 0000.0001) //    127 ddddddddd
(PID.TID 0000.0001) //    126 ddddddddd
(PID.TID 0000.0001) //    125 ddddddddd
(PID.TID 0000.0001) //    124 ddddddddd
(PID.TID 0000.0001) //    123 ddddddddd
(PID.TID 0000.0001) //    122 ddddddddd
(PID.TID 0000.0001) //    121 ddddddddd
(PID.TID 0000.0001) //    120 ddddddddd
(PID.TID 0000.0001) //    119 ddddddddd
(PID.TID 0000.0001) //    118 ddddddddd
(PID.TID 0000.0001) //    117 ddddddddd
(PID.TID 0000.0001) //    116 ddddddddd
(PID.TID 0000.0001) //    115 ddddddddd
(PID.TID 0000.0001) //    114 ddddddddd
(PID.TID 0000.0001) //    113 ddddddddd
(PID.TID 0000.0001) //    112 ddddddddd
(PID.TID 0000.0001) //    111 ddddddddd
(PID.TID 0000.0001) //    110 ccccccccc
(PID.TID 0000.0001) //    109 ccccccccc
(PID.TID 0000.0001) //    108 ccccccccc
(PID.TID 0000.0001) //    107 ccccccccc
(PID.TID 0000.0001) //    106 ccccccccc
(PID.TID 0000.0001) //    105 ccccccccc
(PID.TID 0000.0001) //    104 ccccccccc
(PID.TID 0000.0001) //    103 ccccccccc
(PID.TID 0000.0001) //    102 ccccccccc
(PID.TID 0000.0001) //    101 ccccccccc
(PID.TID 0000.0001) //    100 ccccccccc
(PID.TID 0000.0001) //     99 ccccccccc
(PID.TID 0000.0001) //     98 ccccccccc
(PID.TID 0000.0001) //     97 ccccccccc
(PID.TID 0000.0001) //     96 ccccccccc
(PID.TID 0000.0001) //     95 ccccccccc
(PID.TID 0000.0001) //     94 ccccccccc
(PID.TID 0000.0001) //     93 ccccccccc
(PID.TID 0000.0001) //     92 ccccccccc
(PID.TID 0000.0001) //     91 ccccccccc
(PID.TID 0000.0001) //     90 ccccccccc
(PID.TID 0000.0001) //     89 ccccccccc
(PID.TID 0000.0001) //     88 ccccccccc
(PID.TID 0000.0001) //     87 ccccccccc
(PID.TID 0000.0001) //     86 ccccccccc
(PID.TID 0000.0001) //     85 ccccccccc
(PID.TID 0000.0001) //     84 ccccccccc
(PID.TID 0000.0001) //     83 ccccccccc
(PID.TID 0000.0001) //     82 ccccccccc
(PID.TID 0000.0001) //     81 ccccccccc
(PID.TID 0000.0001) //     80 bbbbbbbbb
(PID.TID 0000.0001) //     79 bbbbbbbbb
(PID.TID 0000.0001) //     78 bbbbbbbbb
(PID.TID 0000.0001) //     77 bbbbbbbbb
(PID.TID 0000.0001) //     76 bbbbbbbbb
(PID.TID 0000.0001) //     75 bbbbbbbbb
(PID.TID 0000.0001) //     74 bbbbbbbbb
(PID.TID 0000.0001) //     73 bbbbbbbbb
(PID.TID 0000.0001) //     72 bbbbbbbbb
(PID.TID 0000.0001) //     71 bbbbbbbbb
(PID.TID 0000.0001) //     70 bbbbbbbbb
(PID.TID 0000.0001) //     69 bbbbbbbbb
(PID.TID 0000.0001) //     68 bbbbbbbbb
(PID.TID 0000.0001) //     67 bbbbbbbbb
(PID.TID 0000.0001) //     66 bbbbbbbbb
(PID.TID 0000.0001) //     65 bbbbbbbbb
(PID.TID 0000.0001) //     64 bbbbbbbbb
(PID.TID 0000.0001) //     63 bbbbbbbbb
(PID.TID 0000.0001) //     62 bbbbbbbbb
(PID.TID 0000.0001) //     61 bbbbbbbbb
(PID.TID 0000.0001) //     60 bbbbbbbbb
(PID.TID 0000.0001) //     59 bbbbbbbbb
(PID.TID 0000.0001) //     58 bbbbbbbbb
(PID.TID 0000.0001) //     57 bbbbbbbbb
(PID.TID 0000.0001) //     56 bbbbbbbbb
(PID.TID 0000.0001) //     55 bbbbbbbbb
(PID.TID 0000.0001) //     54 bbbbbbbbb
(PID.TID 0000.0001) //     53 bbbbbbbbb
(PID.TID 0000.0001) //     52 bbbbbbbbb
(PID.TID 0000.0001) //     51 bbbbbbbbb
(PID.TID 0000.0001) //     50 aaaaaaaaa
(PID.TID 0000.0001) //     49 aaaaaaaaa
(PID.TID 0000.0001) //     48 aaaaaaaaa
(PID.TID 0000.0001) //     47 aaaaaaaaa
(PID.TID 0000.0001) //     46 aaaaaaaaa
(PID.TID 0000.0001) //     45 aaaaaaaaa
(PID.TID 0000.0001) //     44 aaaaaaaaa
(PID.TID 0000.0001) //     43 aaaaaaaaa
(PID.TID 0000.0001) //     42 aaaaaaaaa
(PID.TID 0000.0001) //     41 aaaaaaaaa
(PID.TID 0000.0001) //     40 aaaaaaaaa
(PID.TID 0000.0001) //     39 aaaaaaaaa
(PID.TID 0000.0001) //     38 aaaaaaaaa
(PID.TID 0000.0001) //     37 aaaaaaaaa
(PID.TID 0000.0001) //     36 aaaaaaaaa
(PID.TID 0000.0001) //     35 aaaaaaaaa
(PID.TID 0000.0001) //     34 aaaaaaaaa
(PID.TID 0000.0001) //     33 aaaaaaaaa
(PID.TID 0000.0001) //     32 aaaaaaaaa
(PID.TID 0000.0001) //     31 aaaaaaaaa
(PID.TID 0000.0001) //     30 aaaaaaaaa
(PID.TID 0000.0001) //     29 aaaaaaaaa
(PID.TID 0000.0001) //     28 aaaaaaaaa
(PID.TID 0000.0001) //     27 aaaaaaaaa
(PID.TID 0000.0001) //     26 aaaaaaaaa
(PID.TID 0000.0001) //     25 aaaaaaaaa
(PID.TID 0000.0001) //     24 aaaaaaaaa
(PID.TID 0000.0001) //     23 aaaaaaaaa
(PID.TID 0000.0001) //     22 aaaaaaaaa
(PID.TID 0000.0001) //     21 aaaaaaaaa
(PID.TID 0000.0001) //     20 ---------
(PID.TID 0000.0001) //     19 ---------
(PID.TID 0000.0001) //     18 ---------
(PID.TID 0000.0001) //     17 ---------
(PID.TID 0000.0001) //     16 ---------
(PID.TID 0000.0001) //     15 ---------
(PID.TID 0000.0001) //     14 ---------
(PID.TID 0000.0001) //     13 ---------
(PID.TID 0000.0001) //     12 ---------
(PID.TID 0000.0001) //     11 ---------
(PID.TID 0000.0001) //     10 ---------
(PID.TID 0000.0001) //      9 ---------
(PID.TID 0000.0001) //      8 ---------
(PID.TID 0000.0001) //      7 ---------
(PID.TID 0000.0001) //      6 ---------
(PID.TID 0000.0001) //      5 ---------
(PID.TID 0000.0001) //      4 ---------
(PID.TID 0000.0001) //      3 ---------
(PID.TID 0000.0001) //      2 ---------
(PID.TID 0000.0001) //      1 .........
(PID.TID 0000.0001) //      0 .........
(PID.TID 0000.0001) //     -1 .........
(PID.TID 0000.0001) //     -2 .........
(PID.TID 0000.0001) // =======================================================
(PID.TID 0000.0001) // END OF FIELD                                          =
(PID.TID 0000.0001) // =======================================================
(PID.TID 0000.0001) 
(PID.TID 0000.0001) // =======================================================
(PID.TID 0000.0001) // Field hFacC at iteration          0
(PID.TID 0000.0001) // CMIN =          1.000000000000000E+00
(PID.TID 0000.0001) // CMAX =          1.000000000000000E+00
(PID.TID 0000.0001) // CINT =          0.000000000000000E+00
(PID.TID 0000.0001) // SYMBOLS (CMIN->CMAX): -abcdefghijklmnopqrstuvwxyz+
(PID.TID 0000.0001) //                  0.0: .
(PID.TID 0000.0001) // RANGE I (Lo:Hi:Step):(    -2:     6:     1)
(PID.TID 0000.0001) // RANGE J (Lo:Hi:Step):(   403:    -2:    -1)
(PID.TID 0000.0001) // RANGE K (Lo:Hi:Step):(   1:   1:   1)
(PID.TID 0000.0001) // =======================================================
(PID.TID 0000.0001) // =======================================================
(PID.TID 0000.0001) // END OF FIELD                                          =
(PID.TID 0000.0001) // =======================================================
(PID.TID 0000.0001) 
(PID.TID 0000.0001) // =======================================================
(PID.TID 0000.0001) // Field hFacW at iteration          0
(PID.TID 0000.0001) // CMIN =          1.000000000000000E+00
(PID.TID 0000.0001) // CMAX =          1.000000000000000E+00
(PID.TID 0000.0001) // CINT =          0.000000000000000E+00
(PID.TID 0000.0001) // SYMBOLS (CMIN->CMAX): -abcdefghijklmnopqrstuvwxyz+
(PID.TID 0000.0001) //                  0.0: .
(PID.TID 0000.0001) // RANGE I (Lo:Hi:Step):(    -2:     6:     1)
(PID.TID 0000.0001) // RANGE J (Lo:Hi:Step):(   403:    -2:    -1)
(PID.TID 0000.0001) // RANGE K (Lo:Hi:Step):(   1:   1:   1)
(PID.TID 0000.0001) // =======================================================
(PID.TID 0000.0001) // =======================================================
(PID.TID 0000.0001) // END OF FIELD                                          =
(PID.TID 0000.0001) // =======================================================
(PID.TID 0000.0001) 
(PID.TID 0000.0001) // =======================================================
(PID.TID 0000.0001) // Field hFacS at iteration          0
(PID.TID 0000.0001) // CMIN =          1.000000000000000E+00
(PID.TID 0000.0001) // CMAX =          1.000000000000000E+00
(PID.TID 0000.0001) // CINT =          0.000000000000000E+00
(PID.TID 0000.0001) // SYMBOLS (CMIN->CMAX): -abcdefghijklmnopqrstuvwxyz+
(PID.TID 0000.0001) //                  0.0: .
(PID.TID 0000.0001) // RANGE I (Lo:Hi:Step):(    -2:     6:     1)
(PID.TID 0000.0001) // RANGE J (Lo:Hi:Step):(   403:    -2:    -1)
(PID.TID 0000.0001) // RANGE K (Lo:Hi:Step):(   1:   1:   1)
(PID.TID 0000.0001) // =======================================================
(PID.TID 0000.0001) // =======================================================
(PID.TID 0000.0001) // END OF FIELD                                          =
(PID.TID 0000.0001) // =======================================================
(PID.TID 0000.0001) 
(PID.TID 0000.0001) GAD_INIT_FIXED: GAD_OlMinSize=  2  0  1
(PID.TID 0000.0001) 
(PID.TID 0000.0001) // ===================================
(PID.TID 0000.0001) // GAD parameters :
(PID.TID 0000.0001) // ===================================
(PID.TID 0000.0001) tempAdvScheme =   /* Temp. Horiz.Advection scheme selector */
(PID.TID 0000.0001)                      30
(PID.TID 0000.0001)     ;
(PID.TID 0000.0001) tempVertAdvScheme =   /* Temp. Vert. Advection scheme selector */
(PID.TID 0000.0001)                      30
(PID.TID 0000.0001)     ;
(PID.TID 0000.0001) tempMultiDimAdvec =   /* use Muti-Dim Advec method for Temp */
(PID.TID 0000.0001)                   T
(PID.TID 0000.0001)     ;
(PID.TID 0000.0001) tempSOM_Advection = /* use 2nd Order Moment Advection for Temp */
(PID.TID 0000.0001)                   F
(PID.TID 0000.0001)     ;
(PID.TID 0000.0001) AdamsBashforthGt = /* apply Adams-Bashforth extrapolation on Gt */
(PID.TID 0000.0001)                   F
(PID.TID 0000.0001)     ;
(PID.TID 0000.0001) AdamsBashforth_T = /* apply Adams-Bashforth extrapolation on Temp */
(PID.TID 0000.0001)                   F
(PID.TID 0000.0001)     ;
(PID.TID 0000.0001) saltAdvScheme =   /* Salt. Horiz.advection scheme selector */
(PID.TID 0000.0001)                      30
(PID.TID 0000.0001)     ;
(PID.TID 0000.0001) saltVertAdvScheme =   /* Salt. Vert. Advection scheme selector */
(PID.TID 0000.0001)                      30
(PID.TID 0000.0001)     ;
(PID.TID 0000.0001) saltMultiDimAdvec =   /* use Muti-Dim Advec method for Salt */
(PID.TID 0000.0001)                   T
(PID.TID 0000.0001)     ;
(PID.TID 0000.0001) saltSOM_Advection = /* use 2nd Order Moment Advection for Salt */
(PID.TID 0000.0001)                   F
(PID.TID 0000.0001)     ;
(PID.TID 0000.0001) AdamsBashforthGs = /* apply Adams-Bashforth extrapolation on Gs */
(PID.TID 0000.0001)                   F
(PID.TID 0000.0001)     ;
(PID.TID 0000.0001) AdamsBashforth_S = /* apply Adams-Bashforth extrapolation on Salt */
(PID.TID 0000.0001)                   F
(PID.TID 0000.0001)     ;
(PID.TID 0000.0001) // ===================================
(PID.TID 0000.0001)  MDS_READ_FIELD: opening global file: shelficemassinit.bin
(PID.TID 0000.0001) ADDED DIAGS TO LIST
(PID.TID 0000.0001)  MDS_READ_FIELD: opening global file: ufacemask3.box
(PID.TID 0000.0001)  MDS_READ_FIELD: opening global file: vfacemask3.box
(PID.TID 0000.0001)  MDS_READ_FIELD: opening global file: vmassflux3.box
(PID.TID 0000.0001)  MDS_READ_FIELD: opening global file: hmask3.box
(PID.TID 0000.0001) ------------------------------------------------------------
(PID.TID 0000.0001) DIAGNOSTICS_SET_LEVELS: done
(PID.TID 0000.0001)  Total Nb of available Diagnostics: ndiagt=   212
(PID.TID 0000.0001)  write list of available Diagnostics to file: available_diagnostics.log
(PID.TID 0000.0001) SETDIAG: Allocate  1 x  1 Levels for Diagnostic #    23 ETAN
(PID.TID 0000.0001) SETDIAG: Allocate  1 x  1 Levels for Diagnostic #    79 oceTAUX
(PID.TID 0000.0001) SETDIAG: Allocate  1 x  1 Levels for Diagnostic #    80 oceTAUY
(PID.TID 0000.0001) SETDIAG: Allocate  1 x  1 Levels for Diagnostic #    85 oceQnet
(PID.TID 0000.0001) SETDIAG: Allocate  1 x  1 Levels for Diagnostic #    83 oceFWflx
(PID.TID 0000.0001) SETDIAG: Allocate  1 x  1 Levels for Diagnostic #    76 MXLDEPTH
(PID.TID 0000.0001) SETDIAG: Allocate  1 x  1 Levels for Diagnostic #   187 SHIfwFlx
(PID.TID 0000.0001) SETDIAG: Allocate  1 x  1 Levels for Diagnostic #   188 SHIhtFlx
(PID.TID 0000.0001) SETDIAG: Allocate  1 x  1 Levels for Diagnostic #   193 SHIgammT
(PID.TID 0000.0001) SETDIAG: Allocate  1 x  1 Levels for Diagnostic #   194 SHIgammS
(PID.TID 0000.0001) SETDIAG: Allocate  1 x  1 Levels for Diagnostic #   196 SHI_mass
(PID.TID 0000.0001) SETDIAG: Allocate  1 x  1 Levels for Diagnostic #   195 SHIuStar
(PID.TID 0000.0001) SETDIAG: Allocate  1 x  1 Levels for Diagnostic #   197 SHIRshel
(PID.TID 0000.0001) SETDIAG: Allocate  1 x  1 Levels for Diagnostic #   198 SHI_MEff
(PID.TID 0000.0001) SETDIAG: Allocate130 x  1 Levels for Diagnostic #    30 UVEL
(PID.TID 0000.0001) SETDIAG: Allocate130 x  1 Levels for Diagnostic #    31 VVEL
(PID.TID 0000.0001) SETDIAG: Allocate130 x  1 Levels for Diagnostic #    32 WVEL
(PID.TID 0000.0001) SETDIAG: Allocate130 x  1 Levels for Diagnostic #    26 THETA
(PID.TID 0000.0001) SETDIAG: Allocate130 x  1 Levels for Diagnostic #    27 SALT
(PID.TID 0000.0001) SETDIAG: Allocate130 x  1 Levels for Diagnostic #    64 RHOAnoma
(PID.TID 0000.0001) SETDIAG: Allocate130 x  1 Levels for Diagnostic #    78 CONVADJ
(PID.TID 0000.0001) SETDIAG: Allocate  1 x  1 Levels for Diagnostic #   199 SI_Uvel
(PID.TID 0000.0001) SETDIAG: Allocate  1 x  1 Levels for Diagnostic #   200 SI_Vvel
(PID.TID 0000.0001) SETDIAG: Allocate  1 x  1 Levels for Diagnostic #   201 SI_Thick
(PID.TID 0000.0001) SETDIAG: Allocate  1 x  1 Levels for Diagnostic #   204 SI_hmask
(PID.TID 0000.0001) SETDIAG: Allocate  1 x  1 Levels for Diagnostic #   203 SI_float
(PID.TID 0000.0001)   space allocated for all diagnostics:     929 levels
(PID.TID 0000.0001)   set mate pointer for diag #    79  oceTAUX  , Parms: UU      U1 , mate:    80
(PID.TID 0000.0001)   set mate pointer for diag #    80  oceTAUY  , Parms: VV      U1 , mate:    79
(PID.TID 0000.0001)   set mate pointer for diag #    30  UVEL     , Parms: UUR     MR , mate:    31
(PID.TID 0000.0001)   set mate pointer for diag #    31  VVEL     , Parms: VVR     MR , mate:    30
(PID.TID 0000.0001) DIAGNOSTICS_SET_POINTERS: Set levels for Outp.Stream: surfDiag
(PID.TID 0000.0001)  Levels:       1.
(PID.TID 0000.0001) DIAGNOSTICS_SET_POINTERS: Set levels for Outp.Stream: dynDiag
(PID.TID 0000.0001)  Levels:       1.   2.   3.   4.   5.   6.   7.   8.   9.  10.  11.  12.  13.  14.  15.  16.  17.  18.  19.  20.
(PID.TID 0000.0001)  Levels:      21.  22.  23.  24.  25.  26.  27.  28.  29.  30.  31.  32.  33.  34.  35.  36.  37.  38.  39.  40.
(PID.TID 0000.0001)  Levels:      41.  42.  43.  44.  45.  46.  47.  48.  49.  50.  51.  52.  53.  54.  55.  56.  57.  58.  59.  60.
(PID.TID 0000.0001)  Levels:      61.  62.  63.  64.  65.  66.  67.  68.  69.  70.  71.  72.  73.  74.  75.  76.  77.  78.  79.  80.
(PID.TID 0000.0001)  Levels:      81.  82.  83.  84.  85.  86.  87.  88.  89.  90.  91.  92.  93.  94.  95.  96.  97.  98.  99. 100.
(PID.TID 0000.0001)  Levels:     101. 102. 103. 104. 105. 106. 107. 108. 109. 110. 111. 112. 113. 114. 115. 116. 117. 118. 119. 120.
(PID.TID 0000.0001)  Levels:     121. 122. 123. 124. 125. 126. 127. 128. 129. 130.
(PID.TID 0000.0001) DIAGNOSTICS_SET_POINTERS: Set levels for Outp.Stream: streamice
(PID.TID 0000.0001)  Levels:       1.
(PID.TID 0000.0001) DIAGNOSTICS_SET_POINTERS: done
(PID.TID 0000.0001) ------------------------------------------------------------
(PID.TID 0000.0001) DIAGSTATS_SET_REGIONS: define no region
(PID.TID 0000.0001) ------------------------------------------------------------
(PID.TID 0000.0001)   space allocated for all stats-diags:       0 levels
(PID.TID 0000.0001) DIAGSTATS_SET_POINTERS: done
(PID.TID 0000.0001) ------------------------------------------------------------
(PID.TID 0000.0001) %MON fCori_max                    =   0.0000000000000E+00
(PID.TID 0000.0001) %MON fCori_min                    =   0.0000000000000E+00
(PID.TID 0000.0001) %MON fCori_mean                   =   0.0000000000000E+00
(PID.TID 0000.0001) %MON fCori_sd                     =   0.0000000000000E+00
(PID.TID 0000.0001) %MON fCoriG_max                   =   0.0000000000000E+00
(PID.TID 0000.0001) %MON fCoriG_min                   =   0.0000000000000E+00
(PID.TID 0000.0001) %MON fCoriG_mean                  =   0.0000000000000E+00
(PID.TID 0000.0001) %MON fCoriG_sd                    =   0.0000000000000E+00
(PID.TID 0000.0001) %MON fCoriCos_max                 =   0.0000000000000E+00
(PID.TID 0000.0001) %MON fCoriCos_min                 =   0.0000000000000E+00
(PID.TID 0000.0001) %MON fCoriCos_mean                =   0.0000000000000E+00
(PID.TID 0000.0001) %MON fCoriCos_sd                  =   0.0000000000000E+00
(PID.TID 0000.0001) INI_CG2D: CG2D normalisation factor =  2.0597897904647066E-04
(PID.TID 0000.0001) 
(PID.TID 0000.0001) // =======================================================
(PID.TID 0000.0001) // Model configuration
(PID.TID 0000.0001) // =======================================================
(PID.TID 0000.0001) //
(PID.TID 0000.0001) // "Physical" paramters ( PARM01 in namelist )
(PID.TID 0000.0001) //
(PID.TID 0000.0001) buoyancyRelation = /* Type of relation to get Buoyancy */
(PID.TID 0000.0001)               'OCEANIC'
(PID.TID 0000.0001)     ;
(PID.TID 0000.0001) fluidIsAir   =  /* fluid major constituent is Air */
(PID.TID 0000.0001)                   F
(PID.TID 0000.0001)     ;
(PID.TID 0000.0001) fluidIsWater =  /* fluid major constituent is Water */
(PID.TID 0000.0001)                   T
(PID.TID 0000.0001)     ;
(PID.TID 0000.0001) usingPCoords =  /* use p (or p*) vertical coordinate */
(PID.TID 0000.0001)                   F
(PID.TID 0000.0001)     ;
(PID.TID 0000.0001) usingZCoords =  /* use z (or z*) vertical coordinate */
(PID.TID 0000.0001)                   T
(PID.TID 0000.0001)     ;
(PID.TID 0000.0001) tRef =   /* Reference temperature profile ( oC or K ) */
(PID.TID 0000.0001)   130 @ -1.900000000000000E+00              /* K =  1:130 */
(PID.TID 0000.0001)     ;
(PID.TID 0000.0001) sRef =   /* Reference salinity profile ( psu ) */
(PID.TID 0000.0001)   130 @  3.440000000000000E+01              /* K =  1:130 */
(PID.TID 0000.0001)     ;
(PID.TID 0000.0001) useStrainTensionVisc= /* Use StrainTension Form of Viscous Operator */
(PID.TID 0000.0001)                   F
(PID.TID 0000.0001)     ;
(PID.TID 0000.0001) useVariableVisc = /* Use variable horizontal viscosity */
(PID.TID 0000.0001)                   T
(PID.TID 0000.0001)     ;
(PID.TID 0000.0001) useHarmonicVisc = /* Use harmonic horizontal viscosity */
(PID.TID 0000.0001)                   T
(PID.TID 0000.0001)     ;
(PID.TID 0000.0001) useBiharmonicVisc= /* Use biharmonic horiz.  viscosity */
(PID.TID 0000.0001)                   T
(PID.TID 0000.0001)     ;
(PID.TID 0000.0001) useSmag3D = /* Use isotropic 3-D Smagorinsky viscosity */
(PID.TID 0000.0001)                   F
(PID.TID 0000.0001)     ;
(PID.TID 0000.0001) viscAh  =   /* Lateral harmonic viscosity ( m^2/s ) */
(PID.TID 0000.0001)                 0.000000000000000E+00
(PID.TID 0000.0001)     ;
(PID.TID 0000.0001) viscAhMax = /* Maximum lateral harmonic viscosity ( m^2/s ) */
(PID.TID 0000.0001)                 1.000000000000000E+21
(PID.TID 0000.0001)     ;
(PID.TID 0000.0001) viscAhGrid = /* Grid dependent lateral harmonic viscosity ( non-dim. ) */
(PID.TID 0000.0001)                 2.000000000000000E-01
(PID.TID 0000.0001)     ;
(PID.TID 0000.0001) useFullLeith = /* Use Full Form of Leith Viscosity on/off flag*/
(PID.TID 0000.0001)                   F
(PID.TID 0000.0001)     ;
(PID.TID 0000.0001) useAreaViscLength = /* Use area for visc length instead of geom. mean*/
(PID.TID 0000.0001)                   F
(PID.TID 0000.0001)     ;
(PID.TID 0000.0001) viscC2leith = /* Leith harmonic visc. factor (on grad(vort),non-dim.) */
(PID.TID 0000.0001)                 0.000000000000000E+00
(PID.TID 0000.0001)     ;
(PID.TID 0000.0001) viscC2leithD = /* Leith harmonic viscosity factor (on grad(div),non-dim.)*/
(PID.TID 0000.0001)                 0.000000000000000E+00
(PID.TID 0000.0001)     ;
(PID.TID 0000.0001) viscC2smag = /* Smagorinsky harmonic viscosity factor (non-dim.) */
(PID.TID 0000.0001)                 0.000000000000000E+00
(PID.TID 0000.0001)     ;
(PID.TID 0000.0001) viscA4  =   /* Lateral biharmonic viscosity ( m^4/s ) */
(PID.TID 0000.0001)                 0.000000000000000E+00
(PID.TID 0000.0001)     ;
(PID.TID 0000.0001) viscA4Max = /* Maximum biharmonic viscosity ( m^2/s ) */
(PID.TID 0000.0001)                 1.000000000000000E+21
(PID.TID 0000.0001)     ;
(PID.TID 0000.0001) viscA4Grid = /* Grid dependent biharmonic viscosity ( non-dim. ) */
(PID.TID 0000.0001)                 2.000000000000000E-02
(PID.TID 0000.0001)     ;
(PID.TID 0000.0001) viscC4leith = /* Leith biharm viscosity factor (on grad(vort), non-dim.)*/
(PID.TID 0000.0001)                 0.000000000000000E+00
(PID.TID 0000.0001)     ;
(PID.TID 0000.0001) viscC4leithD = /* Leith biharm viscosity factor (on grad(div), non-dim.) */
(PID.TID 0000.0001)                 0.000000000000000E+00
(PID.TID 0000.0001)     ;
(PID.TID 0000.0001) viscC4Smag = /* Smagorinsky biharm viscosity factor (non-dim) */
(PID.TID 0000.0001)                 0.000000000000000E+00
(PID.TID 0000.0001)     ;
(PID.TID 0000.0001) no_slip_sides =  /* Viscous BCs: No-slip sides */
(PID.TID 0000.0001)                   F
(PID.TID 0000.0001)     ;
(PID.TID 0000.0001) sideDragFactor = /* side-drag scaling factor (non-dim) */
(PID.TID 0000.0001)                 2.000000000000000E+00
(PID.TID 0000.0001)     ;
(PID.TID 0000.0001) viscArNr = /* vertical profile of vertical viscosity ( m^2/s )*/
(PID.TID 0000.0001)   130 @  1.000000000000000E-03              /* K =  1:130 */
(PID.TID 0000.0001)     ;
(PID.TID 0000.0001) no_slip_bottom =  /* Viscous BCs: No-slip bottom */
(PID.TID 0000.0001)                   F
(PID.TID 0000.0001)     ;
(PID.TID 0000.0001) bottomVisc_pCell = /* Partial-cell in bottom Visc. BC */
(PID.TID 0000.0001)                   F
(PID.TID 0000.0001)     ;
(PID.TID 0000.0001) bottomDragLinear = /* linear bottom-drag coefficient ( m/s ) */
(PID.TID 0000.0001)                 0.000000000000000E+00
(PID.TID 0000.0001)     ;
(PID.TID 0000.0001) bottomDragQuadratic = /* quadratic bottom-drag coefficient (-) */
(PID.TID 0000.0001)                 2.500000000000000E-03
(PID.TID 0000.0001)     ;
(PID.TID 0000.0001) selectBotDragQuadr = /* select quadratic bottom drag options */
(PID.TID 0000.0001)                       0
(PID.TID 0000.0001)     ;
(PID.TID 0000.0001) diffKhT =   /* Laplacian diffusion of heat laterally ( m^2/s ) */
(PID.TID 0000.0001)                 1.000000000000000E+02
(PID.TID 0000.0001)     ;
(PID.TID 0000.0001) diffK4T =   /* Biharmonic diffusion of heat laterally ( m^4/s ) */
(PID.TID 0000.0001)                 0.000000000000000E+00
(PID.TID 0000.0001)     ;
(PID.TID 0000.0001) diffKhS =   /* Laplacian diffusion of salt laterally ( m^2/s ) */
(PID.TID 0000.0001)                 1.000000000000000E+02
(PID.TID 0000.0001)     ;
(PID.TID 0000.0001) diffK4S =   /* Biharmonic diffusion of salt laterally ( m^4/s ) */
(PID.TID 0000.0001)                 0.000000000000000E+00
(PID.TID 0000.0001)     ;
(PID.TID 0000.0001) diffKrNrT = /* vertical profile of vertical diffusion of Temp ( m^2/s )*/
(PID.TID 0000.0001)   130 @  5.000000000000000E-05              /* K =  1:130 */
(PID.TID 0000.0001)     ;
(PID.TID 0000.0001) diffKrNrS = /* vertical profile of vertical diffusion of Salt ( m^2/s )*/
(PID.TID 0000.0001)   130 @  5.000000000000000E-05              /* K =  1:130 */
(PID.TID 0000.0001)     ;
(PID.TID 0000.0001) diffKrBL79surf = /* Surface diffusion for Bryan and Lewis 79 ( m^2/s ) */
(PID.TID 0000.0001)                 0.000000000000000E+00
(PID.TID 0000.0001)     ;
(PID.TID 0000.0001) diffKrBL79deep = /* Deep diffusion for Bryan and Lewis 1979 ( m^2/s ) */
(PID.TID 0000.0001)                 0.000000000000000E+00
(PID.TID 0000.0001)     ;
(PID.TID 0000.0001) diffKrBL79scl = /* Depth scale for Bryan and Lewis 1979 ( m ) */
(PID.TID 0000.0001)                 2.000000000000000E+02
(PID.TID 0000.0001)     ;
(PID.TID 0000.0001) diffKrBL79Ho = /* Turning depth for Bryan and Lewis 1979 ( m ) */
(PID.TID 0000.0001)                -2.000000000000000E+03
(PID.TID 0000.0001)     ;
(PID.TID 0000.0001) ivdc_kappa = /* Implicit Vertical Diffusivity for Convection ( m^2/s) */
(PID.TID 0000.0001)                 0.000000000000000E+00
(PID.TID 0000.0001)     ;
(PID.TID 0000.0001) hMixCriteria=  /* Criteria for mixed-layer diagnostic */
(PID.TID 0000.0001)                -8.000000000000000E-01
(PID.TID 0000.0001)     ;
(PID.TID 0000.0001) dRhoSmall =  /* Parameter for mixed-layer diagnostic */
(PID.TID 0000.0001)                 1.000000000000000E-06
(PID.TID 0000.0001)     ;
(PID.TID 0000.0001) hMixSmooth=  /* Smoothing parameter for mixed-layer diagnostic */
(PID.TID 0000.0001)                 0.000000000000000E+00
(PID.TID 0000.0001)     ;
(PID.TID 0000.0001) eosType =  /* Type of Equation of State */
(PID.TID 0000.0001)               'JMD95Z'
(PID.TID 0000.0001)     ;
(PID.TID 0000.0001) selectP_inEOS_Zc = /* select pressure to use in EOS (0,1,2,3) */
(PID.TID 0000.0001)                       0
(PID.TID 0000.0001)     0= -g*rhoConst*z ; 1= pRef (from tRef,sRef); 2= Hyd P ; 3= Hyd+NH P
(PID.TID 0000.0001)     ;
(PID.TID 0000.0001) phi0Ref = /* reference (P,geo) potential at origin rF(1) (m^2/s^2) */
(PID.TID 0000.0001)                 0.000000000000000E+00
(PID.TID 0000.0001)     ;
(PID.TID 0000.0001) HeatCapacity_Cp =  /* Specific heat capacity ( J/kg/K ) */
(PID.TID 0000.0001)                 3.974000000000000E+03
(PID.TID 0000.0001)     ;
(PID.TID 0000.0001) celsius2K = /* 0 degree Celsius converted to Kelvin ( K ) */
(PID.TID 0000.0001)                 2.731500000000000E+02
(PID.TID 0000.0001)     ;
(PID.TID 0000.0001) rhoConst  = /* Reference density (Boussinesq)  ( kg/m^3 ) */
(PID.TID 0000.0001)                 1.000000000000000E+03
(PID.TID 0000.0001)     ;
(PID.TID 0000.0001) rhoFacC = /* normalized Reference density @ cell-Center (-) */
(PID.TID 0000.0001)   130 @  1.000000000000000E+00              /* K =  1:130 */
(PID.TID 0000.0001)     ;
(PID.TID 0000.0001) rhoFacF = /* normalized Reference density @ W-Interface (-) */
(PID.TID 0000.0001)   131 @  1.000000000000000E+00              /* K =  1:131 */
(PID.TID 0000.0001)     ;
(PID.TID 0000.0001) rhoConstFresh = /* Fresh-water reference density ( kg/m^3 ) */
(PID.TID 0000.0001)                 1.000000000000000E+03
(PID.TID 0000.0001)     ;
(PID.TID 0000.0001) gravity =   /* Gravitational acceleration ( m/s^2 ) */
(PID.TID 0000.0001)                 9.810000000000001E+00
(PID.TID 0000.0001)     ;
(PID.TID 0000.0001) gBaro =   /* Barotropic gravity ( m/s^2 ) */
(PID.TID 0000.0001)                 9.810000000000001E+00
(PID.TID 0000.0001)     ;
(PID.TID 0000.0001) gravFacC = /* gravity factor (vs surf.) @ cell-Center (-) */
(PID.TID 0000.0001)   130 @  1.000000000000000E+00              /* K =  1:130 */
(PID.TID 0000.0001)     ;
(PID.TID 0000.0001) gravFacF = /* gravity factor (vs surf.) @ W-Interface (-) */
(PID.TID 0000.0001)   131 @  1.000000000000000E+00              /* K =  1:131 */
(PID.TID 0000.0001)     ;
(PID.TID 0000.0001) rotationPeriod =   /* Rotation Period ( s ) */
(PID.TID 0000.0001)                 8.616400000000000E+04
(PID.TID 0000.0001)     ;
(PID.TID 0000.0001) omega =   /* Angular velocity ( rad/s ) */
(PID.TID 0000.0001)                 7.292123516990375E-05
(PID.TID 0000.0001)     ;
(PID.TID 0000.0001) f0 =   /* Reference coriolis parameter ( 1/s ) */
(PID.TID 0000.0001)                 0.000000000000000E+00
(PID.TID 0000.0001)     ;
(PID.TID 0000.0001) beta =   /* Beta ( 1/(m.s) ) */
(PID.TID 0000.0001)                 9.999999999999999E-12
(PID.TID 0000.0001)     ;
(PID.TID 0000.0001) fPrime =   /* Second coriolis parameter ( 1/s ) */
(PID.TID 0000.0001)                 0.000000000000000E+00
(PID.TID 0000.0001)     ;
(PID.TID 0000.0001) rigidLid =   /* Rigid lid on/off flag */
(PID.TID 0000.0001)                   F
(PID.TID 0000.0001)     ;
(PID.TID 0000.0001) implicitFreeSurface =   /* Implicit free surface on/off flag */
(PID.TID 0000.0001)                   T
(PID.TID 0000.0001)     ;
(PID.TID 0000.0001) freeSurfFac =   /* Implicit free surface factor */
(PID.TID 0000.0001)                 1.000000000000000E+00
(PID.TID 0000.0001)     ;
(PID.TID 0000.0001) implicSurfPress =  /* Surface Pressure implicit factor (0-1)*/
(PID.TID 0000.0001)                 1.000000000000000E+00
(PID.TID 0000.0001)     ;
(PID.TID 0000.0001) implicDiv2Dflow =  /* Barot. Flow Div. implicit factor (0-1)*/
(PID.TID 0000.0001)                 1.000000000000000E+00
(PID.TID 0000.0001)     ;
(PID.TID 0000.0001) uniformLin_PhiSurf = /* use uniform Bo_surf on/off flag*/
(PID.TID 0000.0001)                   T
(PID.TID 0000.0001)     ;
(PID.TID 0000.0001) uniformFreeSurfLev = /* free-surface level-index is uniform */
(PID.TID 0000.0001)                   F
(PID.TID 0000.0001)     ;
(PID.TID 0000.0001) hFacMin =   /* minimum partial cell factor (hFac) */
(PID.TID 0000.0001)                 2.000000000000000E-01
(PID.TID 0000.0001)     ;
(PID.TID 0000.0001) hFacMinDr = /* minimum partial cell thickness ( m) */
(PID.TID 0000.0001)                 0.000000000000000E+00
(PID.TID 0000.0001)     ;
(PID.TID 0000.0001) exactConserv =  /* Exact Volume Conservation on/off flag*/
(PID.TID 0000.0001)                   T
(PID.TID 0000.0001)     ;
(PID.TID 0000.0001) linFSConserveTr = /* Tracer correction for Lin Free Surface on/off flag*/
(PID.TID 0000.0001)                   F
(PID.TID 0000.0001)     ;
(PID.TID 0000.0001) nonlinFreeSurf = /* Non-linear Free Surf. options (-1,0,1,2,3)*/
(PID.TID 0000.0001)                       4
(PID.TID 0000.0001)      -1,0= Off ; 1,2,3= On, 2=+rescale gU,gV, 3=+update cg2d solv.
(PID.TID 0000.0001)     ;
(PID.TID 0000.0001) hFacInf =   /* lower threshold for hFac (nonlinFreeSurf only)*/
(PID.TID 0000.0001)                 2.000000000000000E-01
(PID.TID 0000.0001)     ;
(PID.TID 0000.0001) hFacSup =   /* upper threshold for hFac (nonlinFreeSurf only)*/
(PID.TID 0000.0001)                 2.000000000000000E+00
(PID.TID 0000.0001)     ;
(PID.TID 0000.0001) select_rStar = /* r* Vertical coord. options (=0 r coord.; >0 uses r*)*/
(PID.TID 0000.0001)                       0
(PID.TID 0000.0001)     ;
(PID.TID 0000.0001) useRealFreshWaterFlux = /* Real Fresh Water Flux on/off flag*/
(PID.TID 0000.0001)                   T
(PID.TID 0000.0001)     ;
(PID.TID 0000.0001) temp_EvPrRn = /* Temp. of Evap/Prec/R (UNSET=use local T)(oC)*/
(PID.TID 0000.0001)                 1.234567000000000E+05
(PID.TID 0000.0001)     ;
(PID.TID 0000.0001) salt_EvPrRn = /* Salin. of Evap/Prec/R (UNSET=use local S)(psu)*/
(PID.TID 0000.0001)                 0.000000000000000E+00
(PID.TID 0000.0001)     ;
(PID.TID 0000.0001) selectAddFluid = /* option for mass source/sink of fluid (=0: off) */
(PID.TID 0000.0001)                       0
(PID.TID 0000.0001)     ;
(PID.TID 0000.0001) temp_addMass = /* Temp. of addMass array (UNSET=use local T)(oC)*/
(PID.TID 0000.0001)                 1.234567000000000E+05
(PID.TID 0000.0001)     ;
(PID.TID 0000.0001) salt_addMass = /* Salin. of addMass array (UNSET=use local S)(psu)*/
(PID.TID 0000.0001)                 0.000000000000000E+00
(PID.TID 0000.0001)     ;
(PID.TID 0000.0001) use3Dsolver = /* use 3-D pressure solver on/off flag */
(PID.TID 0000.0001)                   F
(PID.TID 0000.0001)     ;
(PID.TID 0000.0001) nonHydrostatic =  /* Non-Hydrostatic on/off flag */
(PID.TID 0000.0001)                   F
(PID.TID 0000.0001)     ;
(PID.TID 0000.0001) nh_Am2 = /* Non-Hydrostatic terms scaling factor */
(PID.TID 0000.0001)                 1.000000000000000E+00
(PID.TID 0000.0001)     ;
(PID.TID 0000.0001) implicitNHPress = /* Non-Hyd Pressure implicit factor (0-1)*/
(PID.TID 0000.0001)                 1.000000000000000E+00
(PID.TID 0000.0001)     ;
(PID.TID 0000.0001) selectNHfreeSurf = /* Non-Hyd (free-)Surface option */
(PID.TID 0000.0001)                       0
(PID.TID 0000.0001)     ;
(PID.TID 0000.0001) quasiHydrostatic = /* Quasi-Hydrostatic on/off flag */
(PID.TID 0000.0001)                   F
(PID.TID 0000.0001)     ;
(PID.TID 0000.0001) calc_wVelocity = /* vertical velocity calculation on/off flag */
(PID.TID 0000.0001)                   T
(PID.TID 0000.0001)     ;
(PID.TID 0000.0001) momStepping =  /* Momentum equation on/off flag */
(PID.TID 0000.0001)                   T
(PID.TID 0000.0001)     ;
(PID.TID 0000.0001) vectorInvariantMomentum= /* Vector-Invariant Momentum on/off */
(PID.TID 0000.0001)                   T
(PID.TID 0000.0001)     ;
(PID.TID 0000.0001) momAdvection =  /* Momentum advection on/off flag */
(PID.TID 0000.0001)                   T
(PID.TID 0000.0001)     ;
(PID.TID 0000.0001) momViscosity =  /* Momentum viscosity on/off flag */
(PID.TID 0000.0001)                   T
(PID.TID 0000.0001)     ;
(PID.TID 0000.0001) momImplVertAdv= /* Momentum implicit vert. advection on/off*/
(PID.TID 0000.0001)                   F
(PID.TID 0000.0001)     ;
(PID.TID 0000.0001) implicitViscosity = /* Implicit viscosity on/off flag */
(PID.TID 0000.0001)                   T
(PID.TID 0000.0001)     ;
(PID.TID 0000.0001) implBottomFriction= /* Implicit bottom friction on/off flag */
(PID.TID 0000.0001)                   F
(PID.TID 0000.0001)     ;
(PID.TID 0000.0001) metricTerms =  /* metric-Terms on/off flag */
(PID.TID 0000.0001)                   T
(PID.TID 0000.0001)     ;
(PID.TID 0000.0001) useNHMTerms = /* Non-Hydrostatic Metric-Terms on/off */
(PID.TID 0000.0001)                   F
(PID.TID 0000.0001)     ;
(PID.TID 0000.0001) selectCoriMap = /* Coriolis Map options (0,1,2,3)*/
(PID.TID 0000.0001)                       0
(PID.TID 0000.0001)     0= f-Plane ; 1= Beta-Plane ; 2= Spherical ; 3= read from file
(PID.TID 0000.0001)     ;
(PID.TID 0000.0001) use3dCoriolis = /* 3-D Coriolis on/off flag */
(PID.TID 0000.0001)                   F
(PID.TID 0000.0001)     ;
(PID.TID 0000.0001) useCoriolis =  /* Coriolis on/off flag */
(PID.TID 0000.0001)                   T
(PID.TID 0000.0001)     ;
(PID.TID 0000.0001) useCDscheme =  /* CD scheme on/off flag */
(PID.TID 0000.0001)                   F
(PID.TID 0000.0001)     ;
(PID.TID 0000.0001) useEnergyConservingCoriolis= /* Flx-Form Coriolis scheme flag */
(PID.TID 0000.0001)                   F
(PID.TID 0000.0001)     ;
(PID.TID 0000.0001) useJamartWetPoints= /* Coriolis WetPoints method flag */
(PID.TID 0000.0001)                   F
(PID.TID 0000.0001)     ;
(PID.TID 0000.0001) useJamartMomAdv= /* V.I Non-linear terms Jamart flag */
(PID.TID 0000.0001)                   F
(PID.TID 0000.0001)     ;
(PID.TID 0000.0001) useAbsVorticity= /* V.I Works with f+zeta in Coriolis */
(PID.TID 0000.0001)                   F
(PID.TID 0000.0001)     ;
(PID.TID 0000.0001) selectVortScheme= /* V.I Scheme selector for Vorticity-Term */
(PID.TID 0000.0001)                       1
(PID.TID 0000.0001)    = 0 : enstrophy (Shallow-Water Eq.) conserving scheme by Sadourny, JAS 75
(PID.TID 0000.0001)    = 1 : same as 0 with modified hFac
(PID.TID 0000.0001)    = 2 : energy conserving scheme (used by Sadourny in JAS 75 paper)
(PID.TID 0000.0001)    = 3 : energy (general) and enstrophy (2D, nonDiv.) conserving scheme
(PID.TID 0000.0001)          from Sadourny (Burridge & Haseler, ECMWF Rep.4, 1977)
(PID.TID 0000.0001)     ;
(PID.TID 0000.0001) upwindVorticity= /* V.I Upwind bias vorticity flag */
(PID.TID 0000.0001)                   F
(PID.TID 0000.0001)     ;
(PID.TID 0000.0001) highOrderVorticity= /* V.I High order vort. advect. flag */
(PID.TID 0000.0001)                   F
(PID.TID 0000.0001)     ;
(PID.TID 0000.0001) upwindShear= /* V.I Upwind vertical Shear advection flag */
(PID.TID 0000.0001)                   F
(PID.TID 0000.0001)     ;
(PID.TID 0000.0001) selectKEscheme= /* V.I Kinetic Energy scheme selector */
(PID.TID 0000.0001)                       0
(PID.TID 0000.0001)     ;
(PID.TID 0000.0001) momForcing =  /* Momentum forcing on/off flag */
(PID.TID 0000.0001)                   T
(PID.TID 0000.0001)     ;
(PID.TID 0000.0001) momPressureForcing =  /* Momentum pressure term on/off flag */
(PID.TID 0000.0001)                   T
(PID.TID 0000.0001)     ;
(PID.TID 0000.0001) implicitIntGravWave= /* Implicit Internal Gravity Wave flag */
(PID.TID 0000.0001)                   F
(PID.TID 0000.0001)     ;
(PID.TID 0000.0001) staggerTimeStep =    /* Stagger time stepping on/off flag */
(PID.TID 0000.0001)                   T
(PID.TID 0000.0001)     ;
(PID.TID 0000.0001) doResetHFactors = /* reset thickness factors @ each time-step */
(PID.TID 0000.0001)                   F
(PID.TID 0000.0001)     ;
(PID.TID 0000.0001) multiDimAdvection =  /* enable/disable Multi-Dim Advection */
(PID.TID 0000.0001)                   T
(PID.TID 0000.0001)     ;
(PID.TID 0000.0001) useMultiDimAdvec =   /* Multi-Dim Advection is/is-not used */
(PID.TID 0000.0001)                   T
(PID.TID 0000.0001)     ;
(PID.TID 0000.0001) implicitDiffusion = /* Implicit Diffusion on/off flag */
(PID.TID 0000.0001)                   T
(PID.TID 0000.0001)     ;
(PID.TID 0000.0001) tempStepping =  /* Temperature equation on/off flag */
(PID.TID 0000.0001)                   T
(PID.TID 0000.0001)     ;
(PID.TID 0000.0001) tempAdvection = /* Temperature advection on/off flag */
(PID.TID 0000.0001)                   T
(PID.TID 0000.0001)     ;
(PID.TID 0000.0001) tempImplVertAdv = /* Temp. implicit vert. advection on/off */
(PID.TID 0000.0001)                   T
(PID.TID 0000.0001)     ;
(PID.TID 0000.0001) tempForcing  =  /* Temperature forcing on/off flag */
(PID.TID 0000.0001)                   T
(PID.TID 0000.0001)     ;
(PID.TID 0000.0001) doThetaClimRelax = /* apply SST relaxation on/off flag */
(PID.TID 0000.0001)                   F
(PID.TID 0000.0001)     ;
(PID.TID 0000.0001) tempIsActiveTr = /* Temp. is a dynamically Active Tracer */
(PID.TID 0000.0001)                   T
(PID.TID 0000.0001)     ;
(PID.TID 0000.0001) saltStepping =  /* Salinity equation on/off flag */
(PID.TID 0000.0001)                   T
(PID.TID 0000.0001)     ;
(PID.TID 0000.0001) saltAdvection = /* Salinity advection on/off flag */
(PID.TID 0000.0001)                   T
(PID.TID 0000.0001)     ;
(PID.TID 0000.0001) saltImplVertAdv = /* Sali. implicit vert. advection on/off */
(PID.TID 0000.0001)                   T
(PID.TID 0000.0001)     ;
(PID.TID 0000.0001) saltForcing  =  /* Salinity forcing on/off flag */
(PID.TID 0000.0001)                   T
(PID.TID 0000.0001)     ;
(PID.TID 0000.0001) doSaltClimRelax = /* apply SSS relaxation on/off flag */
(PID.TID 0000.0001)                   F
(PID.TID 0000.0001)     ;
(PID.TID 0000.0001) saltIsActiveTr = /* Salt  is a dynamically Active Tracer */
(PID.TID 0000.0001)                   T
(PID.TID 0000.0001)     ;
(PID.TID 0000.0001)  readBinaryPrec = /* Precision used for reading binary files */
(PID.TID 0000.0001)                      64
(PID.TID 0000.0001)     ;
(PID.TID 0000.0001) writeBinaryPrec = /* Precision used for writing binary files */
(PID.TID 0000.0001)                      32
(PID.TID 0000.0001)     ;
(PID.TID 0000.0001)  globalFiles = /* write "global" (=not per tile) files */
(PID.TID 0000.0001)                   T
(PID.TID 0000.0001)     ;
(PID.TID 0000.0001)  useSingleCpuIO = /* only master MPI process does I/O */
(PID.TID 0000.0001)                   T
(PID.TID 0000.0001)     ;
(PID.TID 0000.0001)  useSingleCpuInput = /* only master process reads input */
(PID.TID 0000.0001)                   T
(PID.TID 0000.0001)     ;
(PID.TID 0000.0001) /* debLev[*]  : level of debug & auxiliary message printing */
(PID.TID 0000.0001) debLevZero =  0 ; /* level of disabled aux. msg printing */
(PID.TID 0000.0001)    debLevA =  1 ; /* level of minimum  aux. msg printing */
(PID.TID 0000.0001)    debLevB =  2 ; /* level of low aux. print (report read-file opening)*/
(PID.TID 0000.0001)    debLevC =  3 ; /* level of moderate debug prt (most pkgs debug msg) */
(PID.TID 0000.0001)    debLevD =  4 ; /* level of enhanced debug prt (add DEBUG_STATS prt) */
(PID.TID 0000.0001)    debLevE =  5 ; /* level of extensive debug printing */
(PID.TID 0000.0001) debugLevel =  /* select debug printing level */
(PID.TID 0000.0001)                       2
(PID.TID 0000.0001)     ;
(PID.TID 0000.0001) //
(PID.TID 0000.0001) // Elliptic solver(s) paramters ( PARM02 in namelist )
(PID.TID 0000.0001) //
(PID.TID 0000.0001) cg2dMaxIters =   /* Upper limit on 2d con. grad iterations  */
(PID.TID 0000.0001)                     300
(PID.TID 0000.0001)     ;
(PID.TID 0000.0001) cg2dChkResFreq =   /* 2d con. grad convergence test frequency */
(PID.TID 0000.0001)                       1
(PID.TID 0000.0001)     ;
(PID.TID 0000.0001) cg2dUseMinResSol= /* use cg2d last-iter(=0) / min-resid.(=1) solution */
(PID.TID 0000.0001)                       0
(PID.TID 0000.0001)     ;
(PID.TID 0000.0001) cg2dTargetResidual =   /* 2d con. grad target residual  */
(PID.TID 0000.0001)                 9.999999999999999E-12
(PID.TID 0000.0001)     ;
(PID.TID 0000.0001) cg2dTargetResWunit =   /* CG2d target residual [W units] */
(PID.TID 0000.0001)                -1.000000000000000E+00
(PID.TID 0000.0001)     ;
(PID.TID 0000.0001) cg2dPreCondFreq =   /* Freq. for updating cg2d preconditioner */
(PID.TID 0000.0001)                       1
(PID.TID 0000.0001)     ;
(PID.TID 0000.0001) useSRCGSolver =  /* use single reduction CG solver(s) */
(PID.TID 0000.0001)                   F
(PID.TID 0000.0001)     ;
(PID.TID 0000.0001) printResidualFreq = /* Freq. for printing CG residual */
(PID.TID 0000.0001)                       0
(PID.TID 0000.0001)     ;
(PID.TID 0000.0001) //
(PID.TID 0000.0001) // Time stepping paramters ( PARM03 in namelist )
(PID.TID 0000.0001) //
(PID.TID 0000.0001) deltaTMom =   /* Momentum equation timestep ( s ) */
(PID.TID 0000.0001)                 3.000000000000000E+02
(PID.TID 0000.0001)     ;
(PID.TID 0000.0001) deltaTFreeSurf = /* FreeSurface equation timestep ( s ) */
(PID.TID 0000.0001)                 3.000000000000000E+02
(PID.TID 0000.0001)     ;
(PID.TID 0000.0001) dTtracerLev =  /* Tracer equation timestep ( s ) */
(PID.TID 0000.0001)   130 @  3.000000000000000E+02              /* K =  1:130 */
(PID.TID 0000.0001)     ;
(PID.TID 0000.0001) deltaTClock  =   /* Model clock timestep ( s ) */
(PID.TID 0000.0001)                 3.000000000000000E+02
(PID.TID 0000.0001)     ;
(PID.TID 0000.0001) cAdjFreq =   /* Convective adjustment interval ( s ) */
(PID.TID 0000.0001)                 3.000000000000000E+02
(PID.TID 0000.0001)     ;
(PID.TID 0000.0001) momForcingOutAB = /* =1: take Momentum Forcing out of Adams-Bash. stepping */
(PID.TID 0000.0001)                       1
(PID.TID 0000.0001)     ;
(PID.TID 0000.0001) tracForcingOutAB = /* =1: take T,S,pTr Forcing out of Adams-Bash. stepping */
(PID.TID 0000.0001)                       1
(PID.TID 0000.0001)     ;
(PID.TID 0000.0001) momDissip_In_AB = /* put Dissipation Tendency in Adams-Bash. stepping */
(PID.TID 0000.0001)                   T
(PID.TID 0000.0001)     ;
(PID.TID 0000.0001) doAB_onGtGs = /* apply AB on Tendencies (rather than on T,S)*/
(PID.TID 0000.0001)                   T
(PID.TID 0000.0001)     ;
(PID.TID 0000.0001) abEps =   /* Adams-Bashforth-2 stabilizing weight */
(PID.TID 0000.0001)                 1.000000000000000E-01
(PID.TID 0000.0001)     ;
(PID.TID 0000.0001) applyExchUV_early = /* Apply EXCH to U,V earlier in time-step */
(PID.TID 0000.0001)                   F
(PID.TID 0000.0001)     ;
(PID.TID 0000.0001) pickupStrictlyMatch= /* stop if pickup do not strictly match */
(PID.TID 0000.0001)                   T
(PID.TID 0000.0001)     ;
(PID.TID 0000.0001) nIter0   =   /* Run starting timestep number */
(PID.TID 0000.0001)                    8640
(PID.TID 0000.0001)     ;
(PID.TID 0000.0001) nTimeSteps = /* Number of timesteps */
(PID.TID 0000.0001)                      12
(PID.TID 0000.0001)     ;
(PID.TID 0000.0001) nEndIter =   /* Run ending timestep number */
(PID.TID 0000.0001)                    8652
(PID.TID 0000.0001)     ;
(PID.TID 0000.0001) baseTime =   /* Model base time ( s ) */
(PID.TID 0000.0001)                 0.000000000000000E+00
(PID.TID 0000.0001)     ;
(PID.TID 0000.0001) startTime =  /* Run start time ( s ) */
(PID.TID 0000.0001)                 2.592000000000000E+06
(PID.TID 0000.0001)     ;
(PID.TID 0000.0001) endTime  =   /* Integration ending time ( s ) */
(PID.TID 0000.0001)                 2.595600000000000E+06
(PID.TID 0000.0001)     ;
(PID.TID 0000.0001) pChkPtFreq = /* Permanent restart/pickup file interval ( s ) */
(PID.TID 0000.0001)                 2.592000000000000E+06
(PID.TID 0000.0001)     ;
(PID.TID 0000.0001) chkPtFreq  = /* Rolling restart/pickup file interval ( s ) */
(PID.TID 0000.0001)                 2.592000000000000E+06
(PID.TID 0000.0001)     ;
(PID.TID 0000.0001) pickup_write_mdsio =   /* Model IO flag. */
(PID.TID 0000.0001)                   T
(PID.TID 0000.0001)     ;
(PID.TID 0000.0001) pickup_read_mdsio =   /* Model IO flag. */
(PID.TID 0000.0001)                   T
(PID.TID 0000.0001)     ;
(PID.TID 0000.0001) pickup_write_immed =   /* Model IO flag. */
(PID.TID 0000.0001)                   F
(PID.TID 0000.0001)     ;
(PID.TID 0000.0001) writePickupAtEnd =   /* Model IO flag. */
(PID.TID 0000.0001)                   T
(PID.TID 0000.0001)     ;
(PID.TID 0000.0001) dumpFreq =   /* Model state write out interval ( s ). */
(PID.TID 0000.0001)                 1.555200000000000E+07
(PID.TID 0000.0001)     ;
(PID.TID 0000.0001) dumpInitAndLast= /* write out Initial & Last iter. model state */
(PID.TID 0000.0001)                   T
(PID.TID 0000.0001)     ;
(PID.TID 0000.0001) snapshot_mdsio =   /* Model IO flag. */
(PID.TID 0000.0001)                   T
(PID.TID 0000.0001)     ;
(PID.TID 0000.0001) monitorFreq =   /* Monitor output interval ( s ). */
(PID.TID 0000.0001)                 1.000000000000000E+00
(PID.TID 0000.0001)     ;
(PID.TID 0000.0001) monitorSelect = /* select group of variables to monitor */
(PID.TID 0000.0001)                       1
(PID.TID 0000.0001)     ;
(PID.TID 0000.0001) monitor_stdio =   /* Model IO flag. */
(PID.TID 0000.0001)                   T
(PID.TID 0000.0001)     ;
(PID.TID 0000.0001) externForcingPeriod =   /* forcing period (s) */
(PID.TID 0000.0001)                 0.000000000000000E+00
(PID.TID 0000.0001)     ;
(PID.TID 0000.0001) externForcingCycle =   /* period of the cyle (s). */
(PID.TID 0000.0001)                 0.000000000000000E+00
(PID.TID 0000.0001)     ;
(PID.TID 0000.0001) tauThetaClimRelax =   /* relaxation time scale (s) */
(PID.TID 0000.0001)                 0.000000000000000E+00
(PID.TID 0000.0001)     ;
(PID.TID 0000.0001) tauSaltClimRelax =   /* relaxation time scale (s) */
(PID.TID 0000.0001)                 0.000000000000000E+00
(PID.TID 0000.0001)     ;
(PID.TID 0000.0001) latBandClimRelax =   /* max. Lat. where relaxation */
(PID.TID 0000.0001)                 1.800000000000000E+02
(PID.TID 0000.0001)     ;
(PID.TID 0000.0001) //
(PID.TID 0000.0001) // Gridding paramters ( PARM04 in namelist )
(PID.TID 0000.0001) //
(PID.TID 0000.0001) usingCartesianGrid = /* Cartesian coordinates flag ( True/False ) */
(PID.TID 0000.0001)                   F
(PID.TID 0000.0001)     ;
(PID.TID 0000.0001) usingCylindricalGrid = /* Cylindrical coordinates flag ( True/False ) */
(PID.TID 0000.0001)                   F
(PID.TID 0000.0001)     ;
(PID.TID 0000.0001) usingSphericalPolarGrid = /* Spherical coordinates flag ( True/False ) */
(PID.TID 0000.0001)                   T
(PID.TID 0000.0001)     ;
(PID.TID 0000.0001) usingCurvilinearGrid = /* Curvilinear coordinates flag ( True/False ) */
(PID.TID 0000.0001)                   F
(PID.TID 0000.0001)     ;
(PID.TID 0000.0001) selectSigmaCoord = /* Hybrid-Sigma Vert. Coordinate option */
(PID.TID 0000.0001)                       0
(PID.TID 0000.0001)     ;
(PID.TID 0000.0001) Ro_SeaLevel = /* r(1) ( units of r ==  m ) */
(PID.TID 0000.0001)                 0.000000000000000E+00
(PID.TID 0000.0001)     ;
(PID.TID 0000.0001) rSigmaBnd = /* r/sigma transition ( units of r ==  m ) */
(PID.TID 0000.0001)                 1.234567000000000E+05
(PID.TID 0000.0001)     ;
(PID.TID 0000.0001) rkSign =   /* index orientation relative to vertical coordinate */
(PID.TID 0000.0001)                -1.000000000000000E+00
(PID.TID 0000.0001)     ;
(PID.TID 0000.0001) gravitySign = /* gravity orientation relative to vertical coordinate */
(PID.TID 0000.0001)                -1.000000000000000E+00
(PID.TID 0000.0001)     ;
(PID.TID 0000.0001) mass2rUnit = /* convert mass per unit area [kg/m2] to r-units [m] */
(PID.TID 0000.0001)                 1.000000000000000E-03
(PID.TID 0000.0001)     ;
(PID.TID 0000.0001) rUnit2mass = /* convert r-units [m] to mass per unit area [kg/m2] */
(PID.TID 0000.0001)                 1.000000000000000E+03
(PID.TID 0000.0001)     ;
(PID.TID 0000.0001) drC =   /* C spacing ( units of r ) */
(PID.TID 0000.0001)                 5.000000000000000E+00,      /* K =  1 */
(PID.TID 0000.0001)   129 @  1.000000000000000E+01,             /* K =  2:130 */
(PID.TID 0000.0001)                 5.000000000000000E+00       /* K =131 */
(PID.TID 0000.0001)     ;
(PID.TID 0000.0001) drF =   /* W spacing ( units of r ) */
(PID.TID 0000.0001)   130 @  1.000000000000000E+01              /* K =  1:130 */
(PID.TID 0000.0001)     ;
(PID.TID 0000.0001) delX = /* U spacing ( m - cartesian, degrees - spherical ) */
(PID.TID 0000.0001)     3 @  1.250000000000000E-01              /* I =  1:  3 */
(PID.TID 0000.0001)     ;
(PID.TID 0000.0001) delY = /* V spacing ( m - cartesian, degrees - spherical ) */
(PID.TID 0000.0001)   400 @  7.812500000000000E-03              /* J =  1:400 */
(PID.TID 0000.0001)     ;
(PID.TID 0000.0001) xgOrigin = /* X-axis origin of West  edge (cartesian: m, lat-lon: deg) */
(PID.TID 0000.0001)                -1.055000000000000E+02
(PID.TID 0000.0001)     ;
(PID.TID 0000.0001) ygOrigin = /* Y-axis origin of South edge (cartesian: m, lat-lon: deg) */
(PID.TID 0000.0001)                -7.544570000000000E+01
(PID.TID 0000.0001)     ;
(PID.TID 0000.0001) rSphere =  /* Radius ( ignored - cartesian, m - spherical ) */
(PID.TID 0000.0001)                 6.370000000000000E+06
(PID.TID 0000.0001)     ;
(PID.TID 0000.0001) deepAtmosphere = /* Deep/Shallow Atmosphere flag (True/False) */
(PID.TID 0000.0001)                   F
(PID.TID 0000.0001)     ;
(PID.TID 0000.0001) xC =  /* xC(:,1,:,1) : P-point X coord ( deg. or m if cartesian) */
(PID.TID 0000.0001)                -1.054375000000000E+02,      /* I =  1 */
(PID.TID 0000.0001)                -1.053125000000000E+02,      /* I =  2 */
(PID.TID 0000.0001)                -1.051875000000000E+02       /* I =  3 */
(PID.TID 0000.0001)     ;
(PID.TID 0000.0001) yC =  /* yC(1,:,1,:) : P-point Y coord ( deg. or m if cartesian) */
(PID.TID 0000.0001)                -7.544179375000000E+01,      /* J =  1 */
(PID.TID 0000.0001)                -7.543398125000000E+01,      /* J =  2 */
(PID.TID 0000.0001)                -7.542616875000000E+01,      /* J =  3 */
(PID.TID 0000.0001)      . . .
(PID.TID 0000.0001)                -7.468398125000000E+01,      /* J = 98 */
(PID.TID 0000.0001)                -7.467616875000000E+01,      /* J = 99 */
(PID.TID 0000.0001)                -7.466835625000000E+01,      /* J =100 */
(PID.TID 0000.0001)                -7.466054375000000E+01,      /* J =101 */
(PID.TID 0000.0001)                -7.465273125000000E+01,      /* J =102 */
(PID.TID 0000.0001)                -7.464491875000000E+01,      /* J =103 */
(PID.TID 0000.0001)      . . .
(PID.TID 0000.0001)                -7.390273125000000E+01,      /* J =198 */
(PID.TID 0000.0001)                -7.389491875000000E+01,      /* J =199 */
(PID.TID 0000.0001)                -7.388710625000000E+01,      /* J =200 */
(PID.TID 0000.0001)                -7.387929375000000E+01,      /* J =201 */
(PID.TID 0000.0001)                -7.387148125000000E+01,      /* J =202 */
(PID.TID 0000.0001)                -7.386366875000000E+01,      /* J =203 */
(PID.TID 0000.0001)      . . .
(PID.TID 0000.0001)                -7.312148125000000E+01,      /* J =298 */
(PID.TID 0000.0001)                -7.311366875000000E+01,      /* J =299 */
(PID.TID 0000.0001)                -7.310585625000000E+01,      /* J =300 */
(PID.TID 0000.0001)                -7.309804375000000E+01,      /* J =301 */
(PID.TID 0000.0001)                -7.309023125000000E+01,      /* J =302 */
(PID.TID 0000.0001)                -7.308241875000000E+01,      /* J =303 */
(PID.TID 0000.0001)      . . .
(PID.TID 0000.0001)                -7.234023125000000E+01,      /* J =398 */
(PID.TID 0000.0001)                -7.233241875000000E+01,      /* J =399 */
(PID.TID 0000.0001)                -7.232460625000000E+01       /* J =400 */
(PID.TID 0000.0001)     ;
(PID.TID 0000.0001) rcoord = /* P-point R coordinate (  units of r ) */
(PID.TID 0000.0001)                -5.000000000000000E+00,      /* K =  1 */
(PID.TID 0000.0001)                -1.500000000000000E+01,      /* K =  2 */
(PID.TID 0000.0001)                -2.500000000000000E+01,      /* K =  3 */
(PID.TID 0000.0001)                -3.500000000000000E+01,      /* K =  4 */
(PID.TID 0000.0001)                -4.500000000000000E+01,      /* K =  5 */
(PID.TID 0000.0001)                -5.500000000000000E+01,      /* K =  6 */
(PID.TID 0000.0001)                -6.500000000000000E+01,      /* K =  7 */
(PID.TID 0000.0001)                -7.500000000000000E+01,      /* K =  8 */
(PID.TID 0000.0001)                -8.500000000000000E+01,      /* K =  9 */
(PID.TID 0000.0001)                -9.500000000000000E+01,      /* K = 10 */
(PID.TID 0000.0001)                -1.050000000000000E+02,      /* K = 11 */
(PID.TID 0000.0001)                -1.150000000000000E+02,      /* K = 12 */
(PID.TID 0000.0001)                -1.250000000000000E+02,      /* K = 13 */
(PID.TID 0000.0001)                -1.350000000000000E+02,      /* K = 14 */
(PID.TID 0000.0001)                -1.450000000000000E+02,      /* K = 15 */
(PID.TID 0000.0001)                -1.550000000000000E+02,      /* K = 16 */
(PID.TID 0000.0001)                -1.650000000000000E+02,      /* K = 17 */
(PID.TID 0000.0001)                -1.750000000000000E+02,      /* K = 18 */
(PID.TID 0000.0001)                -1.850000000000000E+02,      /* K = 19 */
(PID.TID 0000.0001)                -1.950000000000000E+02,      /* K = 20 */
(PID.TID 0000.0001)                -2.050000000000000E+02,      /* K = 21 */
(PID.TID 0000.0001)                -2.150000000000000E+02,      /* K = 22 */
(PID.TID 0000.0001)                -2.250000000000000E+02,      /* K = 23 */
(PID.TID 0000.0001)                -2.350000000000000E+02,      /* K = 24 */
(PID.TID 0000.0001)                -2.450000000000000E+02,      /* K = 25 */
(PID.TID 0000.0001)                -2.550000000000000E+02,      /* K = 26 */
(PID.TID 0000.0001)                -2.650000000000000E+02,      /* K = 27 */
(PID.TID 0000.0001)                -2.750000000000000E+02,      /* K = 28 */
(PID.TID 0000.0001)                -2.850000000000000E+02,      /* K = 29 */
(PID.TID 0000.0001)                -2.950000000000000E+02,      /* K = 30 */
(PID.TID 0000.0001)                -3.050000000000000E+02,      /* K = 31 */
(PID.TID 0000.0001)                -3.150000000000000E+02,      /* K = 32 */
(PID.TID 0000.0001)                -3.250000000000000E+02,      /* K = 33 */
(PID.TID 0000.0001)                -3.350000000000000E+02,      /* K = 34 */
(PID.TID 0000.0001)                -3.450000000000000E+02,      /* K = 35 */
(PID.TID 0000.0001)                -3.550000000000000E+02,      /* K = 36 */
(PID.TID 0000.0001)                -3.650000000000000E+02,      /* K = 37 */
(PID.TID 0000.0001)                -3.750000000000000E+02,      /* K = 38 */
(PID.TID 0000.0001)                -3.850000000000000E+02,      /* K = 39 */
(PID.TID 0000.0001)                -3.950000000000000E+02,      /* K = 40 */
(PID.TID 0000.0001)                -4.050000000000000E+02,      /* K = 41 */
(PID.TID 0000.0001)                -4.150000000000000E+02,      /* K = 42 */
(PID.TID 0000.0001)                -4.250000000000000E+02,      /* K = 43 */
(PID.TID 0000.0001)                -4.350000000000000E+02,      /* K = 44 */
(PID.TID 0000.0001)                -4.450000000000000E+02,      /* K = 45 */
(PID.TID 0000.0001)                -4.550000000000000E+02,      /* K = 46 */
(PID.TID 0000.0001)                -4.650000000000000E+02,      /* K = 47 */
(PID.TID 0000.0001)                -4.750000000000000E+02,      /* K = 48 */
(PID.TID 0000.0001)                -4.850000000000000E+02,      /* K = 49 */
(PID.TID 0000.0001)                -4.950000000000000E+02,      /* K = 50 */
(PID.TID 0000.0001)                -5.050000000000000E+02,      /* K = 51 */
(PID.TID 0000.0001)                -5.150000000000000E+02,      /* K = 52 */
(PID.TID 0000.0001)                -5.250000000000000E+02,      /* K = 53 */
(PID.TID 0000.0001)                -5.350000000000000E+02,      /* K = 54 */
(PID.TID 0000.0001)                -5.450000000000000E+02,      /* K = 55 */
(PID.TID 0000.0001)                -5.550000000000000E+02,      /* K = 56 */
(PID.TID 0000.0001)                -5.650000000000000E+02,      /* K = 57 */
(PID.TID 0000.0001)                -5.750000000000000E+02,      /* K = 58 */
(PID.TID 0000.0001)                -5.850000000000000E+02,      /* K = 59 */
(PID.TID 0000.0001)                -5.950000000000000E+02,      /* K = 60 */
(PID.TID 0000.0001)                -6.050000000000000E+02,      /* K = 61 */
(PID.TID 0000.0001)                -6.150000000000000E+02,      /* K = 62 */
(PID.TID 0000.0001)                -6.250000000000000E+02,      /* K = 63 */
(PID.TID 0000.0001)                -6.350000000000000E+02,      /* K = 64 */
(PID.TID 0000.0001)                -6.450000000000000E+02,      /* K = 65 */
(PID.TID 0000.0001)                -6.550000000000000E+02,      /* K = 66 */
(PID.TID 0000.0001)                -6.650000000000000E+02,      /* K = 67 */
(PID.TID 0000.0001)                -6.750000000000000E+02,      /* K = 68 */
(PID.TID 0000.0001)                -6.850000000000000E+02,      /* K = 69 */
(PID.TID 0000.0001)                -6.950000000000000E+02,      /* K = 70 */
(PID.TID 0000.0001)                -7.050000000000000E+02,      /* K = 71 */
(PID.TID 0000.0001)                -7.150000000000000E+02,      /* K = 72 */
(PID.TID 0000.0001)                -7.250000000000000E+02,      /* K = 73 */
(PID.TID 0000.0001)                -7.350000000000000E+02,      /* K = 74 */
(PID.TID 0000.0001)                -7.450000000000000E+02,      /* K = 75 */
(PID.TID 0000.0001)                -7.550000000000000E+02,      /* K = 76 */
(PID.TID 0000.0001)                -7.650000000000000E+02,      /* K = 77 */
(PID.TID 0000.0001)                -7.750000000000000E+02,      /* K = 78 */
(PID.TID 0000.0001)                -7.850000000000000E+02,      /* K = 79 */
(PID.TID 0000.0001)                -7.950000000000000E+02,      /* K = 80 */
(PID.TID 0000.0001)                -8.050000000000000E+02,      /* K = 81 */
(PID.TID 0000.0001)                -8.150000000000000E+02,      /* K = 82 */
(PID.TID 0000.0001)                -8.250000000000000E+02,      /* K = 83 */
(PID.TID 0000.0001)                -8.350000000000000E+02,      /* K = 84 */
(PID.TID 0000.0001)                -8.450000000000000E+02,      /* K = 85 */
(PID.TID 0000.0001)                -8.550000000000000E+02,      /* K = 86 */
(PID.TID 0000.0001)                -8.650000000000000E+02,      /* K = 87 */
(PID.TID 0000.0001)                -8.750000000000000E+02,      /* K = 88 */
(PID.TID 0000.0001)                -8.850000000000000E+02,      /* K = 89 */
(PID.TID 0000.0001)                -8.950000000000000E+02,      /* K = 90 */
(PID.TID 0000.0001)                -9.050000000000000E+02,      /* K = 91 */
(PID.TID 0000.0001)                -9.150000000000000E+02,      /* K = 92 */
(PID.TID 0000.0001)                -9.250000000000000E+02,      /* K = 93 */
(PID.TID 0000.0001)                -9.350000000000000E+02,      /* K = 94 */
(PID.TID 0000.0001)                -9.450000000000000E+02,      /* K = 95 */
(PID.TID 0000.0001)                -9.550000000000000E+02,      /* K = 96 */
(PID.TID 0000.0001)                -9.650000000000000E+02,      /* K = 97 */
(PID.TID 0000.0001)                -9.750000000000000E+02,      /* K = 98 */
(PID.TID 0000.0001)                -9.850000000000000E+02,      /* K = 99 */
(PID.TID 0000.0001)                -9.950000000000000E+02,      /* K =100 */
(PID.TID 0000.0001)                -1.005000000000000E+03,      /* K =101 */
(PID.TID 0000.0001)                -1.015000000000000E+03,      /* K =102 */
(PID.TID 0000.0001)                -1.025000000000000E+03,      /* K =103 */
(PID.TID 0000.0001)                -1.035000000000000E+03,      /* K =104 */
(PID.TID 0000.0001)                -1.045000000000000E+03,      /* K =105 */
(PID.TID 0000.0001)                -1.055000000000000E+03,      /* K =106 */
(PID.TID 0000.0001)                -1.065000000000000E+03,      /* K =107 */
(PID.TID 0000.0001)                -1.075000000000000E+03,      /* K =108 */
(PID.TID 0000.0001)                -1.085000000000000E+03,      /* K =109 */
(PID.TID 0000.0001)                -1.095000000000000E+03,      /* K =110 */
(PID.TID 0000.0001)                -1.105000000000000E+03,      /* K =111 */
(PID.TID 0000.0001)                -1.115000000000000E+03,      /* K =112 */
(PID.TID 0000.0001)                -1.125000000000000E+03,      /* K =113 */
(PID.TID 0000.0001)                -1.135000000000000E+03,      /* K =114 */
(PID.TID 0000.0001)                -1.145000000000000E+03,      /* K =115 */
(PID.TID 0000.0001)                -1.155000000000000E+03,      /* K =116 */
(PID.TID 0000.0001)                -1.165000000000000E+03,      /* K =117 */
(PID.TID 0000.0001)                -1.175000000000000E+03,      /* K =118 */
(PID.TID 0000.0001)                -1.185000000000000E+03,      /* K =119 */
(PID.TID 0000.0001)                -1.195000000000000E+03,      /* K =120 */
(PID.TID 0000.0001)                -1.205000000000000E+03,      /* K =121 */
(PID.TID 0000.0001)                -1.215000000000000E+03,      /* K =122 */
(PID.TID 0000.0001)                -1.225000000000000E+03,      /* K =123 */
(PID.TID 0000.0001)                -1.235000000000000E+03,      /* K =124 */
(PID.TID 0000.0001)                -1.245000000000000E+03,      /* K =125 */
(PID.TID 0000.0001)                -1.255000000000000E+03,      /* K =126 */
(PID.TID 0000.0001)                -1.265000000000000E+03,      /* K =127 */
(PID.TID 0000.0001)                -1.275000000000000E+03,      /* K =128 */
(PID.TID 0000.0001)                -1.285000000000000E+03,      /* K =129 */
(PID.TID 0000.0001)                -1.295000000000000E+03       /* K =130 */
(PID.TID 0000.0001)     ;
(PID.TID 0000.0001) rF =   /* W-Interf. R coordinate (  units of r ) */
(PID.TID 0000.0001)                 0.000000000000000E+00,      /* K =  1 */
(PID.TID 0000.0001)                -1.000000000000000E+01,      /* K =  2 */
(PID.TID 0000.0001)                -2.000000000000000E+01,      /* K =  3 */
(PID.TID 0000.0001)                -3.000000000000000E+01,      /* K =  4 */
(PID.TID 0000.0001)                -4.000000000000000E+01,      /* K =  5 */
(PID.TID 0000.0001)                -5.000000000000000E+01,      /* K =  6 */
(PID.TID 0000.0001)                -6.000000000000000E+01,      /* K =  7 */
(PID.TID 0000.0001)                -7.000000000000000E+01,      /* K =  8 */
(PID.TID 0000.0001)                -8.000000000000000E+01,      /* K =  9 */
(PID.TID 0000.0001)                -9.000000000000000E+01,      /* K = 10 */
(PID.TID 0000.0001)                -1.000000000000000E+02,      /* K = 11 */
(PID.TID 0000.0001)                -1.100000000000000E+02,      /* K = 12 */
(PID.TID 0000.0001)                -1.200000000000000E+02,      /* K = 13 */
(PID.TID 0000.0001)                -1.300000000000000E+02,      /* K = 14 */
(PID.TID 0000.0001)                -1.400000000000000E+02,      /* K = 15 */
(PID.TID 0000.0001)                -1.500000000000000E+02,      /* K = 16 */
(PID.TID 0000.0001)                -1.600000000000000E+02,      /* K = 17 */
(PID.TID 0000.0001)                -1.700000000000000E+02,      /* K = 18 */
(PID.TID 0000.0001)                -1.800000000000000E+02,      /* K = 19 */
(PID.TID 0000.0001)                -1.900000000000000E+02,      /* K = 20 */
(PID.TID 0000.0001)                -2.000000000000000E+02,      /* K = 21 */
(PID.TID 0000.0001)                -2.100000000000000E+02,      /* K = 22 */
(PID.TID 0000.0001)                -2.200000000000000E+02,      /* K = 23 */
(PID.TID 0000.0001)                -2.300000000000000E+02,      /* K = 24 */
(PID.TID 0000.0001)                -2.400000000000000E+02,      /* K = 25 */
(PID.TID 0000.0001)                -2.500000000000000E+02,      /* K = 26 */
(PID.TID 0000.0001)                -2.600000000000000E+02,      /* K = 27 */
(PID.TID 0000.0001)                -2.700000000000000E+02,      /* K = 28 */
(PID.TID 0000.0001)                -2.800000000000000E+02,      /* K = 29 */
(PID.TID 0000.0001)                -2.900000000000000E+02,      /* K = 30 */
(PID.TID 0000.0001)                -3.000000000000000E+02,      /* K = 31 */
(PID.TID 0000.0001)                -3.100000000000000E+02,      /* K = 32 */
(PID.TID 0000.0001)                -3.200000000000000E+02,      /* K = 33 */
(PID.TID 0000.0001)                -3.300000000000000E+02,      /* K = 34 */
(PID.TID 0000.0001)                -3.400000000000000E+02,      /* K = 35 */
(PID.TID 0000.0001)                -3.500000000000000E+02,      /* K = 36 */
(PID.TID 0000.0001)                -3.600000000000000E+02,      /* K = 37 */
(PID.TID 0000.0001)                -3.700000000000000E+02,      /* K = 38 */
(PID.TID 0000.0001)                -3.800000000000000E+02,      /* K = 39 */
(PID.TID 0000.0001)                -3.900000000000000E+02,      /* K = 40 */
(PID.TID 0000.0001)                -4.000000000000000E+02,      /* K = 41 */
(PID.TID 0000.0001)                -4.100000000000000E+02,      /* K = 42 */
(PID.TID 0000.0001)                -4.200000000000000E+02,      /* K = 43 */
(PID.TID 0000.0001)                -4.300000000000000E+02,      /* K = 44 */
(PID.TID 0000.0001)                -4.400000000000000E+02,      /* K = 45 */
(PID.TID 0000.0001)                -4.500000000000000E+02,      /* K = 46 */
(PID.TID 0000.0001)                -4.600000000000000E+02,      /* K = 47 */
(PID.TID 0000.0001)                -4.700000000000000E+02,      /* K = 48 */
(PID.TID 0000.0001)                -4.800000000000000E+02,      /* K = 49 */
(PID.TID 0000.0001)                -4.900000000000000E+02,      /* K = 50 */
(PID.TID 0000.0001)                -5.000000000000000E+02,      /* K = 51 */
(PID.TID 0000.0001)                -5.100000000000000E+02,      /* K = 52 */
(PID.TID 0000.0001)                -5.200000000000000E+02,      /* K = 53 */
(PID.TID 0000.0001)                -5.300000000000000E+02,      /* K = 54 */
(PID.TID 0000.0001)                -5.400000000000000E+02,      /* K = 55 */
(PID.TID 0000.0001)                -5.500000000000000E+02,      /* K = 56 */
(PID.TID 0000.0001)                -5.600000000000000E+02,      /* K = 57 */
(PID.TID 0000.0001)                -5.700000000000000E+02,      /* K = 58 */
(PID.TID 0000.0001)                -5.800000000000000E+02,      /* K = 59 */
(PID.TID 0000.0001)                -5.900000000000000E+02,      /* K = 60 */
(PID.TID 0000.0001)                -6.000000000000000E+02,      /* K = 61 */
(PID.TID 0000.0001)                -6.100000000000000E+02,      /* K = 62 */
(PID.TID 0000.0001)                -6.200000000000000E+02,      /* K = 63 */
(PID.TID 0000.0001)                -6.300000000000000E+02,      /* K = 64 */
(PID.TID 0000.0001)                -6.400000000000000E+02,      /* K = 65 */
(PID.TID 0000.0001)                -6.500000000000000E+02,      /* K = 66 */
(PID.TID 0000.0001)                -6.600000000000000E+02,      /* K = 67 */
(PID.TID 0000.0001)                -6.700000000000000E+02,      /* K = 68 */
(PID.TID 0000.0001)                -6.800000000000000E+02,      /* K = 69 */
(PID.TID 0000.0001)                -6.900000000000000E+02,      /* K = 70 */
(PID.TID 0000.0001)                -7.000000000000000E+02,      /* K = 71 */
(PID.TID 0000.0001)                -7.100000000000000E+02,      /* K = 72 */
(PID.TID 0000.0001)                -7.200000000000000E+02,      /* K = 73 */
(PID.TID 0000.0001)                -7.300000000000000E+02,      /* K = 74 */
(PID.TID 0000.0001)                -7.400000000000000E+02,      /* K = 75 */
(PID.TID 0000.0001)                -7.500000000000000E+02,      /* K = 76 */
(PID.TID 0000.0001)                -7.600000000000000E+02,      /* K = 77 */
(PID.TID 0000.0001)                -7.700000000000000E+02,      /* K = 78 */
(PID.TID 0000.0001)                -7.800000000000000E+02,      /* K = 79 */
(PID.TID 0000.0001)                -7.900000000000000E+02,      /* K = 80 */
(PID.TID 0000.0001)                -8.000000000000000E+02,      /* K = 81 */
(PID.TID 0000.0001)                -8.100000000000000E+02,      /* K = 82 */
(PID.TID 0000.0001)                -8.200000000000000E+02,      /* K = 83 */
(PID.TID 0000.0001)                -8.300000000000000E+02,      /* K = 84 */
(PID.TID 0000.0001)                -8.400000000000000E+02,      /* K = 85 */
(PID.TID 0000.0001)                -8.500000000000000E+02,      /* K = 86 */
(PID.TID 0000.0001)                -8.600000000000000E+02,      /* K = 87 */
(PID.TID 0000.0001)                -8.700000000000000E+02,      /* K = 88 */
(PID.TID 0000.0001)                -8.800000000000000E+02,      /* K = 89 */
(PID.TID 0000.0001)                -8.900000000000000E+02,      /* K = 90 */
(PID.TID 0000.0001)                -9.000000000000000E+02,      /* K = 91 */
(PID.TID 0000.0001)                -9.100000000000000E+02,      /* K = 92 */
(PID.TID 0000.0001)                -9.200000000000000E+02,      /* K = 93 */
(PID.TID 0000.0001)                -9.300000000000000E+02,      /* K = 94 */
(PID.TID 0000.0001)                -9.400000000000000E+02,      /* K = 95 */
(PID.TID 0000.0001)                -9.500000000000000E+02,      /* K = 96 */
(PID.TID 0000.0001)                -9.600000000000000E+02,      /* K = 97 */
(PID.TID 0000.0001)                -9.700000000000000E+02,      /* K = 98 */
(PID.TID 0000.0001)                -9.800000000000000E+02,      /* K = 99 */
(PID.TID 0000.0001)                -9.900000000000000E+02,      /* K =100 */
(PID.TID 0000.0001)                -1.000000000000000E+03,      /* K =101 */
(PID.TID 0000.0001)                -1.010000000000000E+03,      /* K =102 */
(PID.TID 0000.0001)                -1.020000000000000E+03,      /* K =103 */
(PID.TID 0000.0001)                -1.030000000000000E+03,      /* K =104 */
(PID.TID 0000.0001)                -1.040000000000000E+03,      /* K =105 */
(PID.TID 0000.0001)                -1.050000000000000E+03,      /* K =106 */
(PID.TID 0000.0001)                -1.060000000000000E+03,      /* K =107 */
(PID.TID 0000.0001)                -1.070000000000000E+03,      /* K =108 */
(PID.TID 0000.0001)                -1.080000000000000E+03,      /* K =109 */
(PID.TID 0000.0001)                -1.090000000000000E+03,      /* K =110 */
(PID.TID 0000.0001)                -1.100000000000000E+03,      /* K =111 */
(PID.TID 0000.0001)                -1.110000000000000E+03,      /* K =112 */
(PID.TID 0000.0001)                -1.120000000000000E+03,      /* K =113 */
(PID.TID 0000.0001)                -1.130000000000000E+03,      /* K =114 */
(PID.TID 0000.0001)                -1.140000000000000E+03,      /* K =115 */
(PID.TID 0000.0001)                -1.150000000000000E+03,      /* K =116 */
(PID.TID 0000.0001)                -1.160000000000000E+03,      /* K =117 */
(PID.TID 0000.0001)                -1.170000000000000E+03,      /* K =118 */
(PID.TID 0000.0001)                -1.180000000000000E+03,      /* K =119 */
(PID.TID 0000.0001)                -1.190000000000000E+03,      /* K =120 */
(PID.TID 0000.0001)                -1.200000000000000E+03,      /* K =121 */
(PID.TID 0000.0001)                -1.210000000000000E+03,      /* K =122 */
(PID.TID 0000.0001)                -1.220000000000000E+03,      /* K =123 */
(PID.TID 0000.0001)                -1.230000000000000E+03,      /* K =124 */
(PID.TID 0000.0001)                -1.240000000000000E+03,      /* K =125 */
(PID.TID 0000.0001)                -1.250000000000000E+03,      /* K =126 */
(PID.TID 0000.0001)                -1.260000000000000E+03,      /* K =127 */
(PID.TID 0000.0001)                -1.270000000000000E+03,      /* K =128 */
(PID.TID 0000.0001)                -1.280000000000000E+03,      /* K =129 */
(PID.TID 0000.0001)                -1.290000000000000E+03,      /* K =130 */
(PID.TID 0000.0001)                -1.300000000000000E+03       /* K =131 */
(PID.TID 0000.0001)     ;
(PID.TID 0000.0001) deepFacC = /* deep-model grid factor @ cell-Center (-) */
(PID.TID 0000.0001)   130 @  1.000000000000000E+00              /* K =  1:130 */
(PID.TID 0000.0001)     ;
(PID.TID 0000.0001) deepFacF = /* deep-model grid factor @ W-Interface (-) */
(PID.TID 0000.0001)   131 @  1.000000000000000E+00              /* K =  1:131 */
(PID.TID 0000.0001)     ;
(PID.TID 0000.0001) rVel2wUnit = /* convert units: rVel -> wSpeed (=1 if z-coord)*/
(PID.TID 0000.0001)   131 @  1.000000000000000E+00              /* K =  1:131 */
(PID.TID 0000.0001)     ;
(PID.TID 0000.0001) wUnit2rVel = /* convert units: wSpeed -> rVel (=1 if z-coord)*/
(PID.TID 0000.0001)   131 @  1.000000000000000E+00              /* K =  1:131 */
(PID.TID 0000.0001)     ;
(PID.TID 0000.0001) dBdrRef = /* Vertical grad. of reference buoyancy [(m/s/r)^2] */
(PID.TID 0000.0001)   130 @  0.000000000000000E+00              /* K =  1:130 */
(PID.TID 0000.0001)     ;
(PID.TID 0000.0001) rotateGrid = /* use rotated grid ( True/False ) */
(PID.TID 0000.0001)                   F
(PID.TID 0000.0001)     ;
(PID.TID 0000.0001) phiEuler = /* Euler angle, rotation about original z-coordinate [rad] */
(PID.TID 0000.0001)                 0.000000000000000E+00
(PID.TID 0000.0001)     ;
(PID.TID 0000.0001) thetaEuler = /* Euler angle, rotation about new x-coordinate [rad] */
(PID.TID 0000.0001)                 0.000000000000000E+00
(PID.TID 0000.0001)     ;
(PID.TID 0000.0001) psiEuler = /* Euler angle, rotation about new z-coordinate [rad] */
(PID.TID 0000.0001)                 0.000000000000000E+00
(PID.TID 0000.0001)     ;
(PID.TID 0000.0001) dxF =  /* dxF(:,1,:,1) ( units: m ) */
(PID.TID 0000.0001)     3 @  3.493243558711626E+03              /* I =  1:  3 */
(PID.TID 0000.0001)     ;
(PID.TID 0000.0001) dxF =  /* dxF(1,:,1,:) ( units: m ) */
(PID.TID 0000.0001)                 3.493243558711626E+03,      /* J =  1 */
(PID.TID 0000.0001)                 3.495077619691311E+03,      /* J =  2 */
(PID.TID 0000.0001)                 3.496911615689215E+03,      /* J =  3 */
(PID.TID 0000.0001)      . . .
(PID.TID 0000.0001)                 3.670839895332228E+03,      /* J = 98 */
(PID.TID 0000.0001)                 3.672667494497579E+03,      /* J = 99 */
(PID.TID 0000.0001)                 3.674495025379331E+03,      /* J =100 */
(PID.TID 0000.0001)                 3.676322487943506E+03,      /* J =101 */
(PID.TID 0000.0001)                 3.678149882156126E+03,      /* J =102 */
(PID.TID 0000.0001)                 3.679977207983216E+03,      /* J =103 */
(PID.TID 0000.0001)      . . .
(PID.TID 0000.0001)                 3.853256318813865E+03,      /* J =198 */
(PID.TID 0000.0001)                 3.855076921635369E+03,      /* J =199 */
(PID.TID 0000.0001)                 3.856897452781851E+03,      /* J =200 */
(PID.TID 0000.0001)                 3.858717912219461E+03,      /* J =201 */
(PID.TID 0000.0001)                 3.860538299914350E+03,      /* J =202 */
(PID.TID 0000.0001)                 3.862358615832679E+03,      /* J =203 */
(PID.TID 0000.0001)      . . .
(PID.TID 0000.0001)                 4.034956341653550E+03,      /* J =298 */
(PID.TID 0000.0001)                 4.036769609643207E+03,      /* J =299 */
(PID.TID 0000.0001)                 4.038582802579742E+03,      /* J =300 */
(PID.TID 0000.0001)                 4.040395920429444E+03,      /* J =301 */
(PID.TID 0000.0001)                 4.042208963158603E+03,      /* J =302 */
(PID.TID 0000.0001)                 4.044021930733511E+03,      /* J =303 */
(PID.TID 0000.0001)      . . .
(PID.TID 0000.0001)                 4.215906182030863E+03,      /* J =398 */
(PID.TID 0000.0001)                 4.217711778064368E+03,      /* J =399 */
(PID.TID 0000.0001)                 4.219517295680609E+03       /* J =400 */
(PID.TID 0000.0001)     ;
(PID.TID 0000.0001) dyF =  /* dyF(:,1,:,1) ( units: m ) */
(PID.TID 0000.0001)     3 @  8.685740105628031E+02              /* I =  1:  3 */
(PID.TID 0000.0001)     ;
(PID.TID 0000.0001) dyF =  /* dyF(1,:,1,:) ( units: m ) */
(PID.TID 0000.0001)   400 @  8.685740105628031E+02              /* J =  1:400 */
(PID.TID 0000.0001)     ;
(PID.TID 0000.0001) dxG =  /* dxG(:,1,:,1) ( units: m ) */
(PID.TID 0000.0001)     3 @  3.492326503864269E+03              /* I =  1:  3 */
(PID.TID 0000.0001)     ;
(PID.TID 0000.0001) dxG =  /* dxG(1,:,1,:) ( units: m ) */
(PID.TID 0000.0001)                 3.492326503864269E+03,      /* J =  1 */
(PID.TID 0000.0001)                 3.494160597322059E+03,      /* J =  2 */
(PID.TID 0000.0001)                 3.495994625815115E+03,      /* J =  3 */
(PID.TID 0000.0001)      . . .
(PID.TID 0000.0001)                 3.669926070153822E+03,      /* J = 98 */
(PID.TID 0000.0001)                 3.671753703448232E+03,      /* J = 99 */
(PID.TID 0000.0001)                 3.673581268476031E+03,      /* J =100 */
(PID.TID 0000.0001)                 3.675408765203241E+03,      /* J =101 */
(PID.TID 0000.0001)                 3.677236193595885E+03,      /* J =102 */
(PID.TID 0000.0001)                 3.679063553619987E+03,      /* J =103 */
(PID.TID 0000.0001)      . . .
(PID.TID 0000.0001)                 3.852345990535555E+03,      /* J =198 */
(PID.TID 0000.0001)                 3.854166629181878E+03,      /* J =199 */
(PID.TID 0000.0001)                 3.855987196170102E+03,      /* J =200 */
(PID.TID 0000.0001)                 3.857807691466379E+03,      /* J =201 */
(PID.TID 0000.0001)                 3.859628115036861E+03,      /* J =202 */
(PID.TID 0000.0001)                 3.861448466847702E+03,      /* J =203 */
(PID.TID 0000.0001)      . . .
(PID.TID 0000.0001)                 4.034049679524338E+03,      /* J =298 */
(PID.TID 0000.0001)                 4.035862985027913E+03,      /* J =299 */
(PID.TID 0000.0001)                 4.037676215495220E+03,      /* J =300 */
(PID.TID 0000.0001)                 4.039489370892552E+03,      /* J =301 */
(PID.TID 0000.0001)                 4.041302451186197E+03,      /* J =302 */
(PID.TID 0000.0001)                 4.043115456342444E+03,      /* J =303 */
(PID.TID 0000.0001)      . . .
(PID.TID 0000.0001)                 4.215003354618129E+03,      /* J =398 */
(PID.TID 0000.0001)                 4.216808989847678E+03,      /* J =399 */
(PID.TID 0000.0001)                 4.218614546676747E+03       /* J =400 */
(PID.TID 0000.0001)     ;
(PID.TID 0000.0001) dyG =  /* dyG(:,1,:,1) ( units: m ) */
(PID.TID 0000.0001)     3 @  8.685740105628031E+02              /* I =  1:  3 */
(PID.TID 0000.0001)     ;
(PID.TID 0000.0001) dyG =  /* dyG(1,:,1,:) ( units: m ) */
(PID.TID 0000.0001)   400 @  8.685740105628031E+02              /* J =  1:400 */
(PID.TID 0000.0001)     ;
(PID.TID 0000.0001) dxC =  /* dxC(:,1,:,1) ( units: m ) */
(PID.TID 0000.0001)     3 @  3.493243558711626E+03              /* I =  1:  3 */
(PID.TID 0000.0001)     ;
(PID.TID 0000.0001) dxC =  /* dxC(1,:,1,:) ( units: m ) */
(PID.TID 0000.0001)                 3.493243558711626E+03,      /* J =  1 */
(PID.TID 0000.0001)                 3.495077619691311E+03,      /* J =  2 */
(PID.TID 0000.0001)                 3.496911615689215E+03,      /* J =  3 */
(PID.TID 0000.0001)      . . .
(PID.TID 0000.0001)                 3.670839895332228E+03,      /* J = 98 */
(PID.TID 0000.0001)                 3.672667494497579E+03,      /* J = 99 */
(PID.TID 0000.0001)                 3.674495025379331E+03,      /* J =100 */
(PID.TID 0000.0001)                 3.676322487943506E+03,      /* J =101 */
(PID.TID 0000.0001)                 3.678149882156126E+03,      /* J =102 */
(PID.TID 0000.0001)                 3.679977207983216E+03,      /* J =103 */
(PID.TID 0000.0001)      . . .
(PID.TID 0000.0001)                 3.853256318813865E+03,      /* J =198 */
(PID.TID 0000.0001)                 3.855076921635369E+03,      /* J =199 */
(PID.TID 0000.0001)                 3.856897452781851E+03,      /* J =200 */
(PID.TID 0000.0001)                 3.858717912219461E+03,      /* J =201 */
(PID.TID 0000.0001)                 3.860538299914350E+03,      /* J =202 */
(PID.TID 0000.0001)                 3.862358615832679E+03,      /* J =203 */
(PID.TID 0000.0001)      . . .
(PID.TID 0000.0001)                 4.034956341653550E+03,      /* J =298 */
(PID.TID 0000.0001)                 4.036769609643207E+03,      /* J =299 */
(PID.TID 0000.0001)                 4.038582802579742E+03,      /* J =300 */
(PID.TID 0000.0001)                 4.040395920429444E+03,      /* J =301 */
(PID.TID 0000.0001)                 4.042208963158603E+03,      /* J =302 */
(PID.TID 0000.0001)                 4.044021930733511E+03,      /* J =303 */
(PID.TID 0000.0001)      . . .
(PID.TID 0000.0001)                 4.215906182030863E+03,      /* J =398 */
(PID.TID 0000.0001)                 4.217711778064368E+03,      /* J =399 */
(PID.TID 0000.0001)                 4.219517295680609E+03       /* J =400 */
(PID.TID 0000.0001)     ;
(PID.TID 0000.0001) dyC =  /* dyC(:,1,:,1) ( units: m ) */
(PID.TID 0000.0001)     3 @  8.685740105628031E+02              /* I =  1:  3 */
(PID.TID 0000.0001)     ;
(PID.TID 0000.0001) dyC =  /* dyC(1,:,1,:) ( units: m ) */
(PID.TID 0000.0001)   400 @  8.685740105628031E+02              /* J =  1:400 */
(PID.TID 0000.0001)     ;
(PID.TID 0000.0001) dxV =  /* dxV(:,1,:,1) ( units: m ) */
(PID.TID 0000.0001)     3 @  3.492326503864269E+03              /* I =  1:  3 */
(PID.TID 0000.0001)     ;
(PID.TID 0000.0001) dxV =  /* dxV(1,:,1,:) ( units: m ) */
(PID.TID 0000.0001)                 3.492326503864269E+03,      /* J =  1 */
(PID.TID 0000.0001)                 3.494160597322059E+03,      /* J =  2 */
(PID.TID 0000.0001)                 3.495994625815115E+03,      /* J =  3 */
(PID.TID 0000.0001)      . . .
(PID.TID 0000.0001)                 3.669926070153822E+03,      /* J = 98 */
(PID.TID 0000.0001)                 3.671753703448232E+03,      /* J = 99 */
(PID.TID 0000.0001)                 3.673581268476031E+03,      /* J =100 */
(PID.TID 0000.0001)                 3.675408765203241E+03,      /* J =101 */
(PID.TID 0000.0001)                 3.677236193595885E+03,      /* J =102 */
(PID.TID 0000.0001)                 3.679063553619987E+03,      /* J =103 */
(PID.TID 0000.0001)      . . .
(PID.TID 0000.0001)                 3.852345990535555E+03,      /* J =198 */
(PID.TID 0000.0001)                 3.854166629181878E+03,      /* J =199 */
(PID.TID 0000.0001)                 3.855987196170102E+03,      /* J =200 */
(PID.TID 0000.0001)                 3.857807691466379E+03,      /* J =201 */
(PID.TID 0000.0001)                 3.859628115036861E+03,      /* J =202 */
(PID.TID 0000.0001)                 3.861448466847702E+03,      /* J =203 */
(PID.TID 0000.0001)      . . .
(PID.TID 0000.0001)                 4.034049679524338E+03,      /* J =298 */
(PID.TID 0000.0001)                 4.035862985027913E+03,      /* J =299 */
(PID.TID 0000.0001)                 4.037676215495220E+03,      /* J =300 */
(PID.TID 0000.0001)                 4.039489370892552E+03,      /* J =301 */
(PID.TID 0000.0001)                 4.041302451186197E+03,      /* J =302 */
(PID.TID 0000.0001)                 4.043115456342444E+03,      /* J =303 */
(PID.TID 0000.0001)      . . .
(PID.TID 0000.0001)                 4.215003354618129E+03,      /* J =398 */
(PID.TID 0000.0001)                 4.216808989847678E+03,      /* J =399 */
(PID.TID 0000.0001)                 4.218614546676747E+03       /* J =400 */
(PID.TID 0000.0001)     ;
(PID.TID 0000.0001) dyU =  /* dyU(:,1,:,1) ( units: m ) */
(PID.TID 0000.0001)     3 @  8.685740105628031E+02              /* I =  1:  3 */
(PID.TID 0000.0001)     ;
(PID.TID 0000.0001) dyU =  /* dyU(1,:,1,:) ( units: m ) */
(PID.TID 0000.0001)   400 @  8.685740105628031E+02              /* J =  1:400 */
(PID.TID 0000.0001)     ;
(PID.TID 0000.0001) rA  =  /* rA (:,1,:,1) ( units: m^2 ) */
(PID.TID 0000.0001)     3 @  3.034140565311787E+06              /* I =  1:  3 */
(PID.TID 0000.0001)     ;
(PID.TID 0000.0001) rA  =  /* rA (1,:,1,:) ( units: m^2 ) */
(PID.TID 0000.0001)                 3.034140565311787E+06,      /* J =  1 */
(PID.TID 0000.0001)                 3.035733583016748E+06,      /* J =  2 */
(PID.TID 0000.0001)                 3.037326544268204E+06,      /* J =  3 */
(PID.TID 0000.0001)      . . .
(PID.TID 0000.0001)                 3.188396127550019E+06,      /* J = 98 */
(PID.TID 0000.0001)                 3.189983532691603E+06,      /* J = 99 */
(PID.TID 0000.0001)                 3.191570878509831E+06,      /* J =100 */
(PID.TID 0000.0001)                 3.193158165004705E+06,      /* J =101 */
(PID.TID 0000.0001)                 3.194745392117253E+06,      /* J =102 */
(PID.TID 0000.0001)                 3.196332559837649E+06,      /* J =103 */
(PID.TID 0000.0001)      . . .
(PID.TID 0000.0001)                 3.346838291964839E+06,      /* J =198 */
(PID.TID 0000.0001)                 3.348419620256216E+06,      /* J =199 */
(PID.TID 0000.0001)                 3.350000886305247E+06,      /* J =200 */
(PID.TID 0000.0001)                 3.351582090043131E+06,      /* J =201 */
(PID.TID 0000.0001)                 3.353163231489528E+06,      /* J =202 */
(PID.TID 0000.0001)                 3.354744310595294E+06,      /* J =203 */
(PID.TID 0000.0001)      . . .
(PID.TID 0000.0001)                 3.504658209401646E+06,      /* J =298 */
(PID.TID 0000.0001)                 3.506233166840357E+06,      /* J =299 */
(PID.TID 0000.0001)                 3.507808059117729E+06,      /* J =300 */
(PID.TID 0000.0001)                 3.509382886145306E+06,      /* J =301 */
(PID.TID 0000.0001)                 3.510957647942747E+06,      /* J =302 */
(PID.TID 0000.0001)                 3.512532344460908E+06,      /* J =303 */
(PID.TID 0000.0001)      . . .
(PID.TID 0000.0001)                 3.661826537846853E+06,      /* J =398 */
(PID.TID 0000.0001)                 3.663394831629484E+06,      /* J =399 */
(PID.TID 0000.0001)                 3.664963057312128E+06       /* J =400 */
(PID.TID 0000.0001)     ;
(PID.TID 0000.0001) rAw =  /* rAw(:,1,:,1) ( units: m^2 ) */
(PID.TID 0000.0001)     3 @  3.034140565311787E+06              /* I =  1:  3 */
(PID.TID 0000.0001)     ;
(PID.TID 0000.0001) rAw =  /* rAw(1,:,1,:) ( units: m^2 ) */
(PID.TID 0000.0001)                 3.034140565311787E+06,      /* J =  1 */
(PID.TID 0000.0001)                 3.035733583016748E+06,      /* J =  2 */
(PID.TID 0000.0001)                 3.037326544268204E+06,      /* J =  3 */
(PID.TID 0000.0001)      . . .
(PID.TID 0000.0001)                 3.188396127550019E+06,      /* J = 98 */
(PID.TID 0000.0001)                 3.189983532691603E+06,      /* J = 99 */
(PID.TID 0000.0001)                 3.191570878509831E+06,      /* J =100 */
(PID.TID 0000.0001)                 3.193158165004705E+06,      /* J =101 */
(PID.TID 0000.0001)                 3.194745392117253E+06,      /* J =102 */
(PID.TID 0000.0001)                 3.196332559837649E+06,      /* J =103 */
(PID.TID 0000.0001)      . . .
(PID.TID 0000.0001)                 3.346838291964839E+06,      /* J =198 */
(PID.TID 0000.0001)                 3.348419620256216E+06,      /* J =199 */
(PID.TID 0000.0001)                 3.350000886305247E+06,      /* J =200 */
(PID.TID 0000.0001)                 3.351582090043131E+06,      /* J =201 */
(PID.TID 0000.0001)                 3.353163231489528E+06,      /* J =202 */
(PID.TID 0000.0001)                 3.354744310595294E+06,      /* J =203 */
(PID.TID 0000.0001)      . . .
(PID.TID 0000.0001)                 3.504658209401646E+06,      /* J =298 */
(PID.TID 0000.0001)                 3.506233166840357E+06,      /* J =299 */
(PID.TID 0000.0001)                 3.507808059117729E+06,      /* J =300 */
(PID.TID 0000.0001)                 3.509382886145306E+06,      /* J =301 */
(PID.TID 0000.0001)                 3.510957647942747E+06,      /* J =302 */
(PID.TID 0000.0001)                 3.512532344460908E+06,      /* J =303 */
(PID.TID 0000.0001)      . . .
(PID.TID 0000.0001)                 3.661826537846853E+06,      /* J =398 */
(PID.TID 0000.0001)                 3.663394831629484E+06,      /* J =399 */
(PID.TID 0000.0001)                 3.664963057312128E+06       /* J =400 */
(PID.TID 0000.0001)     ;
(PID.TID 0000.0001) rAs =  /* rAs(:,1,:,1) ( units: m^2 ) */
(PID.TID 0000.0001)     3 @  3.033344035308899E+06              /* I =  1:  3 */
(PID.TID 0000.0001)     ;
(PID.TID 0000.0001) rAs =  /* rAs(1,:,1,:) ( units: m^2 ) */
(PID.TID 0000.0001)                 3.033344035308899E+06,      /* J =  1 */
(PID.TID 0000.0001)                 3.034937081211127E+06,      /* J =  2 */
(PID.TID 0000.0001)                 3.036530070699164E+06,      /* J =  3 */
(PID.TID 0000.0001)      . . .
(PID.TID 0000.0001)                 3.187602402747711E+06,      /* J = 98 */
(PID.TID 0000.0001)                 3.189189837531316E+06,      /* J = 99 */
(PID.TID 0000.0001)                 3.190777213021051E+06,      /* J =100 */
(PID.TID 0000.0001)                 3.192364529177601E+06,      /* J =101 */
(PID.TID 0000.0001)                 3.193951785981312E+06,      /* J =102 */
(PID.TID 0000.0001)                 3.195538983412527E+06,      /* J =103 */
(PID.TID 0000.0001)      . . .
(PID.TID 0000.0001)                 3.346047604486870E+06,      /* J =198 */
(PID.TID 0000.0001)                 3.347628963894507E+06,      /* J =199 */
(PID.TID 0000.0001)                 3.349210261059796E+06,      /* J =200 */
(PID.TID 0000.0001)                 3.350791495963082E+06,      /* J =201 */
(PID.TID 0000.0001)                 3.352372668555223E+06,      /* J =202 */
(PID.TID 0000.0001)                 3.353953778836218E+06,      /* J =203 */
(PID.TID 0000.0001)      . . .
(PID.TID 0000.0001)                 3.503870706239417E+06,      /* J =298 */
(PID.TID 0000.0001)                 3.505445696268627E+06,      /* J =299 */
(PID.TID 0000.0001)                 3.507020621126668E+06,      /* J =300 */
(PID.TID 0000.0001)                 3.508595480784056E+06,      /* J =301 */
(PID.TID 0000.0001)                 3.510170275211308E+06,      /* J =302 */
(PID.TID 0000.0001)                 3.511745004359280E+06,      /* J =303 */
(PID.TID 0000.0001)      . . .
(PID.TID 0000.0001)                 3.661042365411898E+06,      /* J =398 */
(PID.TID 0000.0001)                 3.662610693259267E+06,      /* J =399 */
(PID.TID 0000.0001)                 3.664178952986990E+06       /* J =400 */
(PID.TID 0000.0001)     ;
(PID.TID 0000.0001) globalArea = /* Integrated horizontal Area (m^2) */
(PID.TID 0000.0001)                 4.000354112641523E+09
(PID.TID 0000.0001)     ;
(PID.TID 0000.0001) // =======================================================
(PID.TID 0000.0001) // End of Model config. summary
(PID.TID 0000.0001) // =======================================================
(PID.TID 0000.0001) 
(PID.TID 0000.0001) == Packages configuration : Check & print summary ==
(PID.TID 0000.0001) 
(PID.TID 0000.0001) OBCS_CHECK: #define ALLOW_OBCS
(PID.TID 0000.0001) OBCS_CHECK: start summary:
(PID.TID 0000.0001) useOBCSprescribe = /* prescribe OB values */
(PID.TID 0000.0001)                   T
(PID.TID 0000.0001)     ;
(PID.TID 0000.0001) useOBCSbalance = /* balance the flow through OB */
(PID.TID 0000.0001)                   F
(PID.TID 0000.0001)     ;
(PID.TID 0000.0001) OBCS_uvApplyFac = /* Factor to apply to U,V 2nd column/row */
(PID.TID 0000.0001)                 1.000000000000000E+00
(PID.TID 0000.0001)     ;
(PID.TID 0000.0001) OBCS_u1_adv_T = /* Temp uses upwind adv-scheme @ OB */
(PID.TID 0000.0001)                       0
(PID.TID 0000.0001)     ;
(PID.TID 0000.0001) OBCS_u1_adv_S = /* Salt uses upwind adv-scheme @ OB */
(PID.TID 0000.0001)                       0
(PID.TID 0000.0001)     ;
(PID.TID 0000.0001) OBCS_monitorFreq = /* monitor output frequency [s] */
(PID.TID 0000.0001)                 1.000000000000000E+00
(PID.TID 0000.0001)     ;
(PID.TID 0000.0001) OBCS_monSelect = /* select group of variables to monitor */
(PID.TID 0000.0001)                       0
(PID.TID 0000.0001)     ;
(PID.TID 0000.0001) useOBCStides = /* apply tidal forcing through OB */
(PID.TID 0000.0001)                   F
(PID.TID 0000.0001)     ;
(PID.TID 0000.0001) tidalPeriod = /* (s) */
(PID.TID 0000.0001)    10 @  0.000000000000000E+00              /* I =  1: 10 */
(PID.TID 0000.0001)     ;
(PID.TID 0000.0001) OB_indexNone = /* null value for OB index (i.e. no OB) */
(PID.TID 0000.0001)                     -99
(PID.TID 0000.0001)     ;
(PID.TID 0000.0001) ======== Tile bi=   1 , bj=   1 ========
(PID.TID 0000.0001)  OB_Jn = /* Northern OB local indices */
(PID.TID 0000.0001)     9 @      400                            /* I = -2:  6 */
(PID.TID 0000.0001)  OB_Js = /* Southern OB local indices */
(PID.TID 0000.0001)     9 @      -99                            /* I = -2:  6 */
(PID.TID 0000.0001)  OB_Ie = /* Eastern OB local indices */
(PID.TID 0000.0001)   406 @      -99                            /* J = -2:403 */
(PID.TID 0000.0001)  OB_Iw = /* Western OB local indices */
(PID.TID 0000.0001)   406 @      -99                            /* J = -2:403 */
(PID.TID 0000.0001) OBCS_CHECK: end summary.
(PID.TID 0000.0001) OBCS_CHECK: set-up OK
(PID.TID 0000.0001) OBCS_CHECK: check Inside Mask and OB locations: OK
(PID.TID 0000.0001) SHELFICE_CHECK: #define ALLOW_SHELFICE
(PID.TID 0000.0001) 
(PID.TID 0000.0001) SHELFICE_CHECK: start of SHELFICE config. summary
(PID.TID 0000.0001) SHELFICEisOn = /* package is turned on */
(PID.TID 0000.0001)                   T
(PID.TID 0000.0001)     ;
(PID.TID 0000.0001) SHELFICEwriteState  = /* do simple standard output */
(PID.TID 0000.0001)                   T
(PID.TID 0000.0001)     ;
(PID.TID 0000.0001) SHELFICE_dump_mdsio = /* use mdsio for snapshots */
(PID.TID 0000.0001)                   T
(PID.TID 0000.0001)     ;
(PID.TID 0000.0001) SHELFICE_tave_mdsio = /* use mdsio for time averages */
(PID.TID 0000.0001)                   T
(PID.TID 0000.0001)     ;
(PID.TID 0000.0001) SHELFICE_dump_mnc   = /* use netcdf for snapshots */
(PID.TID 0000.0001)                   F
(PID.TID 0000.0001)     ;
(PID.TID 0000.0001) SHELFICE_tave_mnc   = /* use netcdf for time averages */
(PID.TID 0000.0001)                   F
(PID.TID 0000.0001)     ;
(PID.TID 0000.0001) SHELFICE_dumpFreq = /* analoguous to dumpFreq */
(PID.TID 0000.0001)                 1.555200000000000E+07
(PID.TID 0000.0001)     ;
(PID.TID 0000.0001) SHELFICE_taveFreq = /* analoguous to taveFreq */
(PID.TID 0000.0001)                 0.000000000000000E+00
(PID.TID 0000.0001)     ;
(PID.TID 0000.0001) useISOMIPTD = /* use simple isomip thermodynamics */
(PID.TID 0000.0001)                   F
(PID.TID 0000.0001)     ;
(PID.TID 0000.0001) SHELFICEconserve = /* use a conservative form of boundary conditions */
(PID.TID 0000.0001)                   T
(PID.TID 0000.0001)     ;
(PID.TID 0000.0001) SHELFICEboundaryLayer = /* use simple boundary layer scheme to suppress noise */
(PID.TID 0000.0001)                   T
(PID.TID 0000.0001)     ;
(PID.TID 0000.0001) SHELFICEadvDiffHeatFlux = /* use adv.-diff. instead of just diff. heat flux into the ice shelf */
(PID.TID 0000.0001)                   F
(PID.TID 0000.0001)     ;
(PID.TID 0000.0001) SHELFICEMassStepping = /* step forward ice shelf mass/thickness */
(PID.TID 0000.0001)                   T
(PID.TID 0000.0001)     ;
(PID.TID 0000.0001) no_slip_shelfice = /* use no slip boundary conditions */
(PID.TID 0000.0001)                   F
(PID.TID 0000.0001)     ;
(PID.TID 0000.0001) SHELFICEdragLinear    = /* linear drag coefficient */
(PID.TID 0000.0001)                 0.000000000000000E+00
(PID.TID 0000.0001)     ;
(PID.TID 0000.0001) SHELFICEdragQuadratic = /* quadratic drag coefficient */
(PID.TID 0000.0001)                 1.500000000000000E-03
(PID.TID 0000.0001)     ;
(PID.TID 0000.0001) SHELFICElatentHeat      = /* latent heat of ice */
(PID.TID 0000.0001)                 3.340000000000000E+05
(PID.TID 0000.0001)     ;
(PID.TID 0000.0001) SHELFICEheatCapacity_Cp = /* heat capacity of ice shelf */
(PID.TID 0000.0001)                 2.000000000000000E+03
(PID.TID 0000.0001)     ;
(PID.TID 0000.0001) rhoShelfice   = /* density of ice shelf */
(PID.TID 0000.0001)                 9.170000000000000E+02
(PID.TID 0000.0001)     ;
(PID.TID 0000.0001) SHELFICEkappa = /* thermal conductivity of ice shelf */
(PID.TID 0000.0001)                 1.540000000000000E-06
(PID.TID 0000.0001)     ;
(PID.TID 0000.0001) SHELFICEthetaSurface = /* surface temperature above i.s. */
(PID.TID 0000.0001)                -2.000000000000000E+01
(PID.TID 0000.0001)     ;
(PID.TID 0000.0001) SHELFICEheatTransCoeff = /* heat transfer coefficient */
(PID.TID 0000.0001)                 1.000000000000000E-04
(PID.TID 0000.0001)     ;
(PID.TID 0000.0001) SHELFICEsaltTransCoeff = /* salt transfer coefficient */
(PID.TID 0000.0001)                 5.050000000000000E-07
(PID.TID 0000.0001)     ;
(PID.TID 0000.0001) SHELFICEuseGammaFrict = /* use velocity dependent exchange coefficients */
(PID.TID 0000.0001)                   T
(PID.TID 0000.0001)     ;
(PID.TID 0000.0001) shiCdrag   = /* quadr. drag coefficient for uStar */
(PID.TID 0000.0001)                 1.500000000000000E-03
(PID.TID 0000.0001)     ;
(PID.TID 0000.0001) shiZetaN   = /* parameter for gammaTurb */
(PID.TID 0000.0001)                 5.200000000000000E-02
(PID.TID 0000.0001)     ;
(PID.TID 0000.0001) shiRc      = /* parameter for gammaTurb (not used) */
(PID.TID 0000.0001)                 2.000000000000000E-01
(PID.TID 0000.0001)     ;
(PID.TID 0000.0001) shiPrandtl = /* const. Prandtl No. for gammaTurb */
(PID.TID 0000.0001)                 1.380000000000000E+01
(PID.TID 0000.0001)     ;
(PID.TID 0000.0001) shiSchmidt = /* const. Schmidt No. for gammaTurb */
(PID.TID 0000.0001)                 2.432000000000000E+03
(PID.TID 0000.0001)     ;
(PID.TID 0000.0001) shiKinVisc = /* const. kin. viscosity for gammaTurb */
(PID.TID 0000.0001)                 1.950000000000000E-06
(PID.TID 0000.0001)     ;
(PID.TID 0000.0001) SHELFICEloadAnomalyFile = /* file name of loaded loadAnomaly field */
(PID.TID 0000.0001)               ''
(PID.TID 0000.0001)     ;
(PID.TID 0000.0001) SHELFICEmassFile = /* file name of loaded mass field */
(PID.TID 0000.0001)               'shelficemassinit.bin'
(PID.TID 0000.0001)     ;
(PID.TID 0000.0001) SHELFICEtopoFile = /* file name of loaded under-ice topography */
(PID.TID 0000.0001)               'shelftopo.round.bin'
(PID.TID 0000.0001)     ;
(PID.TID 0000.0001) SHELFICEMassDynTendFile = /* file name of loaded dynamic mass tendency field */
(PID.TID 0000.0001)               ''
(PID.TID 0000.0001)     ;
(PID.TID 0000.0001) SHELFICE_CHECK: end of SHELFICE config. summary
(PID.TID 0000.0001) STREAMICE_CHECK: #define STREAMICE
(PID.TID 0000.0001)  max cg interations = /* user defined parameter */
(PID.TID 0000.0001)                     700
(PID.TID 0000.0001)     ;
(PID.TID 0000.0001)  max nonlin interations = /* user defined parameter */
(PID.TID 0000.0001)                      50
(PID.TID 0000.0001)     ;
(PID.TID 0000.0001)  # of timesteps per velocity solve  = /* user defined parameter */
(PID.TID 0000.0001)                     144
(PID.TID 0000.0001)     ;
(PID.TID 0000.0001)  streamice_density = /* user defined parameter */
(PID.TID 0000.0001)                 9.170000000000000E+02
(PID.TID 0000.0001)     ;
(PID.TID 0000.0001)  streamice_density_ocean_avg = /* user defined parameter */
(PID.TID 0000.0001)                 1.028000000000000E+03
(PID.TID 0000.0001)     ;
(PID.TID 0000.0001)  glens law stifness = /* user defined parameter */
(PID.TID 0000.0001)                 7.000000000000000E+02
(PID.TID 0000.0001)     ;
(PID.TID 0000.0001)  glens law exponent = /* user defined parameter */
(PID.TID 0000.0001)                 3.000000000000000E+00
(PID.TID 0000.0001)     ;
(PID.TID 0000.0001)  basal trac coeff = /* user defined parameter */
(PID.TID 0000.0001)                 5.000000000000000E+00
(PID.TID 0000.0001)     ;
(PID.TID 0000.0001)  basal exponent = /* user defined parameter */
(PID.TID 0000.0001)                 1.000000000000000E+00
(PID.TID 0000.0001)     ;
(PID.TID 0000.0001)  uniform input flux (m^2/a) = /* user defined parameter */
(PID.TID 0000.0001)                 0.000000000000000E+00
(PID.TID 0000.0001)     ;
(PID.TID 0000.0001)  time for ice vel update (sec) = /* user defined parameter */
(PID.TID 0000.0001)                 4.320000000000000E+04
(PID.TID 0000.0001)     ;
(PID.TID 0000.0001)  conj grad tolerance = /* user defined parameter */
(PID.TID 0000.0001)                 1.000000000000000E-06
(PID.TID 0000.0001)     ;
(PID.TID 0000.0001)  ice velocity nonlinear iter tol = /* user defined parameter */
(PID.TID 0000.0001)                 1.000000000000000E-06
(PID.TID 0000.0001)     ;
(PID.TID 0000.0001)  max shelf draft for analytic init (m) = /* user defined parameter */
(PID.TID 0000.0001)                 0.000000000000000E+00
(PID.TID 0000.0001)     ;
(PID.TID 0000.0001)  min shelf draft for analytic init (m) = /* user defined parameter */
(PID.TID 0000.0001)                 0.000000000000000E+00
(PID.TID 0000.0001)     ;
(PID.TID 0000.0001)  shelf extent for analytic init (km) = /* user defined parameter */
(PID.TID 0000.0001)                 0.000000000000000E+00
(PID.TID 0000.0001)     ;
(PID.TID 0000.0001)  slope scale for analytic init (km) = /* user defined parameter */
(PID.TID 0000.0001)                 0.000000000000000E+00
(PID.TID 0000.0001)     ;
(PID.TID 0000.0001)  flat shelf width for analytic init (km) = /* user defined parameter */
(PID.TID 0000.0001)                 0.000000000000000E+00
(PID.TID 0000.0001)     ;
(PID.TID 0000.0001)  flow direction for analytic init = /* user defined parameter */
(PID.TID 0000.0001)                 0.000000000000000E+00
(PID.TID 0000.0001)     ;
(PID.TID 0000.0001)  min range on no bd for no-slip (km) = /* user defined parameter */
(PID.TID 0000.0001)                -2.000000000000000E+02
(PID.TID 0000.0001)     ;
(PID.TID 0000.0001)  max range on no bd for no-slip (km) = /* user defined parameter */
(PID.TID 0000.0001)                 0.000000000000000E+00
(PID.TID 0000.0001)     ;
(PID.TID 0000.0001)  min range on so bd for no-slip (km) = /* user defined parameter */
(PID.TID 0000.0001)                -2.000000000000000E+02
(PID.TID 0000.0001)     ;
(PID.TID 0000.0001)  max range on so bd for no-slip (km) = /* user defined parameter */
(PID.TID 0000.0001)                 0.000000000000000E+00
(PID.TID 0000.0001)     ;
(PID.TID 0000.0001)  min range on east bd for no-slip (km) = /* user defined parameter */
(PID.TID 0000.0001)                -1.800000000000000E+02
(PID.TID 0000.0001)     ;
(PID.TID 0000.0001)  max range on east bd for no-slip (km) = /* user defined parameter */
(PID.TID 0000.0001)                 0.000000000000000E+00
(PID.TID 0000.0001)     ;
(PID.TID 0000.0001)  min range on west bd for no-slip (km) = /* user defined parameter */
(PID.TID 0000.0001)                 0.000000000000000E+00
(PID.TID 0000.0001)     ;
(PID.TID 0000.0001)  max range on west bd for no-slip (km) = /* user defined parameter */
(PID.TID 0000.0001)                 0.000000000000000E+00
(PID.TID 0000.0001)     ;
(PID.TID 0000.0001)  min range on no bd for no-stress (km) = /* user defined parameter */
(PID.TID 0000.0001)                 0.000000000000000E+00
(PID.TID 0000.0001)     ;
(PID.TID 0000.0001)  max range on no bd for no-stress (km) = /* user defined parameter */
(PID.TID 0000.0001)                 0.000000000000000E+00
(PID.TID 0000.0001)     ;
(PID.TID 0000.0001)  min range on so bd for no-stress (km) = /* user defined parameter */
(PID.TID 0000.0001)                 0.000000000000000E+00
(PID.TID 0000.0001)     ;
(PID.TID 0000.0001)  max range on so bd for no-stress (km) = /* user defined parameter */
(PID.TID 0000.0001)                 0.000000000000000E+00
(PID.TID 0000.0001)     ;
(PID.TID 0000.0001)  min range on east bd for no-stress (km) = /* user defined parameter */
(PID.TID 0000.0001)                -1.000000000000000E+00
(PID.TID 0000.0001)     ;
(PID.TID 0000.0001)  max range on east bd for no-stress (km) = /* user defined parameter */
(PID.TID 0000.0001)                -1.000000000000000E+00
(PID.TID 0000.0001)     ;
(PID.TID 0000.0001)  min range on west bd for no-stress (km) = /* user defined parameter */
(PID.TID 0000.0001)                -1.000000000000000E+00
(PID.TID 0000.0001)     ;
(PID.TID 0000.0001)  max range on west bd for no-stress (km) = /* user defined parameter */
(PID.TID 0000.0001)                -1.000000000000000E+00
(PID.TID 0000.0001)     ;
(PID.TID 0000.0001)  min range on no bd for FluxBdry (km) = /* user defined parameter */
(PID.TID 0000.0001)                -1.000000000000000E+00
(PID.TID 0000.0001)     ;
(PID.TID 0000.0001)  max range on no bd for FluxBdry (km) = /* user defined parameter */
(PID.TID 0000.0001)                -1.000000000000000E+00
(PID.TID 0000.0001)     ;
(PID.TID 0000.0001)  min range on so bd for FluxBdry (km) = /* user defined parameter */
(PID.TID 0000.0001)                -1.000000000000000E+00
(PID.TID 0000.0001)     ;
(PID.TID 0000.0001)  max range on so bd for FluxBdry (km) = /* user defined parameter */
(PID.TID 0000.0001)                -1.000000000000000E+00
(PID.TID 0000.0001)     ;
(PID.TID 0000.0001)  min range on east bd for FluxBdry (km) = /* user defined parameter */
(PID.TID 0000.0001)                -1.800000000000000E+02
(PID.TID 0000.0001)     ;
(PID.TID 0000.0001)  max range on east bd for FluxBdry (km) = /* user defined parameter */
(PID.TID 0000.0001)                 0.000000000000000E+00
(PID.TID 0000.0001)     ;
(PID.TID 0000.0001)  min range on west bd for FluxBdry (km) = /* user defined parameter */
(PID.TID 0000.0001)                 0.000000000000000E+00
(PID.TID 0000.0001)     ;
(PID.TID 0000.0001)  max range on west bd for FluxBdry (km) = /* user defined parameter */
(PID.TID 0000.0001)                 0.000000000000000E+00
(PID.TID 0000.0001)     ;
(PID.TID 0000.0001)  min range on no bd for Dirich (km) = /* user defined parameter */
(PID.TID 0000.0001)                -1.000000000000000E+00
(PID.TID 0000.0001)     ;
(PID.TID 0000.0001)  max range on no bd for Dirich (km) = /* user defined parameter */
(PID.TID 0000.0001)                -1.000000000000000E+00
(PID.TID 0000.0001)     ;
(PID.TID 0000.0001)  min range on so bd for Dirich (km) = /* user defined parameter */
(PID.TID 0000.0001)                -1.000000000000000E+00
(PID.TID 0000.0001)     ;
(PID.TID 0000.0001)  max range on so bd for Dirich (km) = /* user defined parameter */
(PID.TID 0000.0001)                -1.000000000000000E+00
(PID.TID 0000.0001)     ;
(PID.TID 0000.0001)  min range on east bd for Dirich (km) = /* user defined parameter */
(PID.TID 0000.0001)                -1.000000000000000E+00
(PID.TID 0000.0001)     ;
(PID.TID 0000.0001)  max range on east bd for Dirich (km) = /* user defined parameter */
(PID.TID 0000.0001)                -1.000000000000000E+00
(PID.TID 0000.0001)     ;
(PID.TID 0000.0001)  min range on west bd for Dirich (km) = /* user defined parameter */
(PID.TID 0000.0001)                -1.000000000000000E+00
(PID.TID 0000.0001)     ;
(PID.TID 0000.0001)  max range on west bd for Dirich (km) = /* user defined parameter */
(PID.TID 0000.0001)                -1.000000000000000E+00
(PID.TID 0000.0001)     ;
(PID.TID 0000.0001)  min range on no bd for CFBC (km) = /* user defined parameter */
(PID.TID 0000.0001)                -1.000000000000000E+00
(PID.TID 0000.0001)     ;
(PID.TID 0000.0001)  max range on no bd for CFBC (km) = /* user defined parameter */
(PID.TID 0000.0001)                -1.000000000000000E+00
(PID.TID 0000.0001)     ;
(PID.TID 0000.0001)  min range on so bd for CFBC (km) = /* user defined parameter */
(PID.TID 0000.0001)                -1.000000000000000E+00
(PID.TID 0000.0001)     ;
(PID.TID 0000.0001)  max range on so bd for CFBC (km) = /* user defined parameter */
(PID.TID 0000.0001)                -1.000000000000000E+00
(PID.TID 0000.0001)     ;
(PID.TID 0000.0001)  min range on east bd for CFBC (km) = /* user defined parameter */
(PID.TID 0000.0001)                 0.000000000000000E+00
(PID.TID 0000.0001)     ;
(PID.TID 0000.0001)  max range on east bd for CFBC (km) = /* user defined parameter */
(PID.TID 0000.0001)                 0.000000000000000E+00
(PID.TID 0000.0001)     ;
(PID.TID 0000.0001)  min range on west bd for CFBC (km) = /* user defined parameter */
(PID.TID 0000.0001)                -1.800000000000000E+02
(PID.TID 0000.0001)     ;
(PID.TID 0000.0001)  max range on west bd for CFBC (km) = /* user defined parameter */
(PID.TID 0000.0001)                 0.000000000000000E+00
(PID.TID 0000.0001)     ;
(PID.TID 0000.0001)  val (m^2/a) for north flux bdry = /* user defined parameter */
(PID.TID 0000.0001)                 0.000000000000000E+00
(PID.TID 0000.0001)     ;
(PID.TID 0000.0001)  val (m^2/a) for south flux bdry = /* user defined parameter */
(PID.TID 0000.0001)                 0.000000000000000E+00
(PID.TID 0000.0001)     ;
(PID.TID 0000.0001)  val (m^2/a) for east flux bdry = /* user defined parameter */
(PID.TID 0000.0001)                 1.500000000000000E+06
(PID.TID 0000.0001)     ;
(PID.TID 0000.0001)  val (m^2/a) for west flux bdry = /* user defined parameter */
(PID.TID 0000.0001)                 0.000000000000000E+00
(PID.TID 0000.0001)     ;
(PID.TID 0000.0001)  streamice_dump_mdsio = /* user defined parameter */
(PID.TID 0000.0001)                   T
(PID.TID 0000.0001)     ;
(PID.TID 0000.0001)  streamice_dump_mdsio = /* user defined parameter */
(PID.TID 0000.0001)                   T
(PID.TID 0000.0001)     ;
(PID.TID 0000.0001)  streamice_dump_mnc = /* user defined parameter */
(PID.TID 0000.0001)                   F
(PID.TID 0000.0001)     ;
(PID.TID 0000.0001)  streamice_tave_mnc = /* user defined parameter */
(PID.TID 0000.0001)                   F
(PID.TID 0000.0001)     ;
(PID.TID 0000.0001)  streamice_move_front = /* user defined parameter */
(PID.TID 0000.0001)                   F
(PID.TID 0000.0001)     ;
(PID.TID 0000.0001)  streamice_calve_to_mask = /* user defined parameter */
(PID.TID 0000.0001)                   F
(PID.TID 0000.0001)     ;
(PID.TID 0000.0001) STREAMICEthickInit = /* user defined parameter */
(PID.TID 0000.0001)               'FILE'
(PID.TID 0000.0001)     ;
(PID.TID 0000.0001) STREAMICEthickFile = /* user defined parameter */
(PID.TID 0000.0001)               'hinit666.box'
(PID.TID 0000.0001)     ;
(PID.TID 0000.0001) STREAMICEcalveMaskFile = /* user defined parameter */
(PID.TID 0000.0001)               ''
(PID.TID 0000.0001)     ;
(PID.TID 0000.0001) GAD_CHECK: #define ALLOW_GENERIC_ADVDIFF
(PID.TID 0000.0001) // =======================================================
(PID.TID 0000.0001) // Check Model config. (CONFIG_CHECK):
(PID.TID 0000.0001) // CONFIG_CHECK : Normal End
(PID.TID 0000.0001) // =======================================================
(PID.TID 0000.0001) 
(PID.TID 0000.0001)  MDS_READ_META: opening file: pickup.0000008640.meta
(PID.TID 0000.0001)  nRecords = 783 ; filePrec =  64 ; fileIter =      8640
(PID.TID 0000.0001)     nDims =   2 , dims:
(PID.TID 0000.0001)    1:   3   1   3
(PID.TID 0000.0001)    2: 400   1 400
(PID.TID 0000.0001)     nFlds =   9 , nFl3D =   6 , fields:
(PID.TID 0000.0001)  >Uvel    < >Vvel    < >Theta   < >Salt    < >GuNm1   < >GvNm1   < >EtaN    < >dEtaHdt < >EtaH    <
(PID.TID 0000.0001) missingVal=  1.00000000000000E+00 ; nTimRec =   1 , timeList:
(PID.TID 0000.0001)   2.592000000000E+06
(PID.TID 0000.0001) READ_MFLDS_3D_RL: read field: "Uvel    ", #   1 in fldList, rec=   1
(PID.TID 0000.0001)  MDS_READ_FIELD: opening global file: pickup.0000008640.data
(PID.TID 0000.0001) READ_MFLDS_3D_RL: read field: "Vvel    ", #   2 in fldList, rec=   2
(PID.TID 0000.0001)  MDS_READ_FIELD: opening global file: pickup.0000008640.data
(PID.TID 0000.0001) READ_MFLDS_3D_RL: read field: "Theta   ", #   3 in fldList, rec=   3
(PID.TID 0000.0001)  MDS_READ_FIELD: opening global file: pickup.0000008640.data
(PID.TID 0000.0001) READ_MFLDS_3D_RL: read field: "Salt    ", #   4 in fldList, rec=   4
(PID.TID 0000.0001)  MDS_READ_FIELD: opening global file: pickup.0000008640.data
(PID.TID 0000.0001) READ_MFLDS_3D_RL: read field: "GuNm1   ", #   5 in fldList, rec=   5
(PID.TID 0000.0001)  MDS_READ_FIELD: opening global file: pickup.0000008640.data
(PID.TID 0000.0001) READ_MFLDS_3D_RL: read field: "GvNm1   ", #   6 in fldList, rec=   6
(PID.TID 0000.0001)  MDS_READ_FIELD: opening global file: pickup.0000008640.data
(PID.TID 0000.0001) READ_MFLDS_3D_RL: read field: "EtaN    ", #   7 in fldList, rec= 781
(PID.TID 0000.0001)  MDS_READ_FIELD: opening global file: pickup.0000008640.data
(PID.TID 0000.0001) READ_MFLDS_3D_RL: read field: "dEtaHdt ", #   8 in fldList, rec= 782
(PID.TID 0000.0001)  MDS_READ_FIELD: opening global file: pickup.0000008640.data
(PID.TID 0000.0001) READ_MFLDS_3D_RL: read field: "EtaH    ", #   9 in fldList, rec= 783
(PID.TID 0000.0001)  MDS_READ_FIELD: opening global file: pickup.0000008640.data
(PID.TID 0000.0001) READ_MFLDS_CHECK: - normal end ; reset MFLDS file-name: pickup.0000008640
(PID.TID 0000.0001)  write diagnostics summary to file ioUnit:      6
Iter.Nb:      8640 ; Time(s):  2.5920000000000E+06
------------------------------------------------------------------------
2D/3D diagnostics: Number of lists:     3
------------------------------------------------------------------------
listId=    1 ; file name: surfDiag
 nFlds, nActive,       freq     &     phase        , nLev               
   14  |   14  |       300.000000         0.000000 |   1
 levels:   1
 diag# | name   |   ipt  |  iMate | kLev|   count |   mate.C|           
    23 |ETAN    |      1 |      0 |   1 |       0 |
    79 |oceTAUX |      2 |      3 |   1 |       0 |       0 |
    80 |oceTAUY |      3 |      2 |   1 |       0 |       0 |
    85 |oceQnet |      4 |      0 |   1 |       0 |
    83 |oceFWflx|      5 |      0 |   1 |       0 |
    76 |MXLDEPTH|      6 |      0 |   1 |       0 |
   187 |SHIfwFlx|      7 |      0 |   1 |       0 |
   188 |SHIhtFlx|      8 |      0 |   1 |       0 |
   193 |SHIgammT|      9 |      0 |   1 |       0 |
   194 |SHIgammS|     10 |      0 |   1 |       0 |
   196 |SHI_mass|     11 |      0 |   1 |       0 |
   195 |SHIuStar|     12 |      0 |   1 |       0 |
   197 |SHIRshel|     13 |      0 |   1 |       0 |
   198 |SHI_MEff|     14 |      0 |   1 |       0 |
------------------------------------------------------------------------
listId=    2 ; file name: dynDiag
 nFlds, nActive,       freq     &     phase        , nLev               
    7  |    7  |       300.000000         0.000000 | 130
 levels:   1   2   3   4   5   6   7   8   9  10  11  12  13  14  15  16  17  18  19  20  21  22  23  24  25
 levels:  26  27  28  29  30  31  32  33  34  35  36  37  38  39  40  41  42  43  44  45  46  47  48  49  50
 levels:  51  52  53  54  55  56  57  58  59  60  61  62  63  64  65  66  67  68  69  70  71  72  73  74  75
 levels:  76  77  78  79  80  81  82  83  84  85  86  87  88  89  90  91  92  93  94  95  96  97  98  99 100
 levels: 101 102 103 104 105 106 107 108 109 110 111 112 113 114 115 116 117 118 119 120 121 122 123 124 125
 levels: 126 127 128 129 130
 diag# | name   |   ipt  |  iMate | kLev|   count |   mate.C|           
    30 |UVEL    |     15 |    145 | 130 |       0 |       0 |
    31 |VVEL    |    145 |     15 | 130 |       0 |       0 |
    32 |WVEL    |    275 |      0 | 130 |       0 |
    26 |THETA   |    405 |      0 | 130 |       0 |
    27 |SALT    |    535 |      0 | 130 |       0 |
    64 |RHOAnoma|    665 |      0 | 130 |       0 |
    78 |CONVADJ |    795 |      0 | 130 |       0 |
------------------------------------------------------------------------
listId=    3 ; file name: streamice
 nFlds, nActive,       freq     &     phase        , nLev               
    5  |    5  |       300.000000         0.000000 |   1
 levels:   1
 diag# | name   |   ipt  |  iMate | kLev|   count |   mate.C|           
   199 |SI_Uvel |    925 |      0 |   1 |       0 |
   200 |SI_Vvel |    926 |      0 |   1 |       0 |
   201 |SI_Thick|    927 |      0 |   1 |       0 |
   204 |SI_hmask|    928 |      0 |   1 |       0 |
   203 |SI_float|    929 |      0 |   1 |       0 |
------------------------------------------------------------------------
Global & Regional Statistics diagnostics: Number of lists:     0
------------------------------------------------------------------------
(PID.TID 0000.0001)  MDS_READ_META: opening file: pickup_shelfice.0000008640.meta
(PID.TID 0000.0001)  nRecords =   3 ; filePrec =  64 ; fileIter =      8640
(PID.TID 0000.0001)     nDims =   2 , dims:
(PID.TID 0000.0001)    1:   3   1   3
(PID.TID 0000.0001)    2: 400   1 400
(PID.TID 0000.0001)     nFlds =   3 , nFl3D =   0 , fields:
(PID.TID 0000.0001)  >SHI_mass< >R_Shelfi< >RMinSurf<
(PID.TID 0000.0001) missingVal=  1.00000000000000E+00 ; nTimRec =   1 , timeList:
(PID.TID 0000.0001)   2.592000000000E+06
(PID.TID 0000.0001) READ_MFLDS_3D_RL: read field: "SHI_mass", #   1 in fldList, rec=   1
(PID.TID 0000.0001)  MDS_READ_FIELD: opening global file: pickup_shelfice.0000008640.data
(PID.TID 0000.0001) READ_MFLDS_3D_RL: read field: "R_Shelfi", #   2 in fldList, rec=   2
(PID.TID 0000.0001)  MDS_READ_FIELD: opening global file: pickup_shelfice.0000008640.data
(PID.TID 0000.0001) READ_MFLDS_3D_RL: read field: "RMinSurf", #   3 in fldList, rec=   3
(PID.TID 0000.0001)  MDS_READ_FIELD: opening global file: pickup_shelfice.0000008640.data
(PID.TID 0000.0001) READ_MFLDS_CHECK: - normal end ; reset MFLDS file-name: pickup_shelfice.0000008640
(PID.TID 0000.0001)  MDS_READ_FIELD: opening global file: bathy101.box
(PID.TID 0000.0001)  MDS_READ_FIELD: opening global file: hinit666.box
(PID.TID 0000.0001)  MDS_READ_FIELD: opening global file: hmask3.box
(PID.TID 0000.0001)  MDS_READ_META: opening file: pickup_streamice.0000008640.meta
(PID.TID 0000.0001)  nRecords = 139 ; filePrec =  64 ; fileIter =      8640
(PID.TID 0000.0001)     nDims =   2 , dims:
(PID.TID 0000.0001)    1:   3   1   3
(PID.TID 0000.0001)    2: 400   1 400
(PID.TID 0000.0001)     nFlds =  10 , nFl3D =   1 , fields:
(PID.TID 0000.0001)  >visc3d  < >SI_area < >SI_hmask< >SI_uvel < >SI_vvel < >SI_thick< >SI_betaF< >SI_visc < >SI_taubx< >SI_tauby<
(PID.TID 0000.0001) missingVal=  1.00000000000000E+00 ; nTimRec =   1 , timeList:
(PID.TID 0000.0001)   2.592000000000E+06
(PID.TID 0000.0001) READ_MFLDS_3D_RL: read field: "visc3d  ", #   1 in fldList, rec=   1
(PID.TID 0000.0001)  MDS_READ_FIELD: opening global file: pickup_streamice.0000008640.data
(PID.TID 0000.0001) READ_MFLDS_3D_RL: read field: "SI_area ", #   2 in fldList, rec= 131
(PID.TID 0000.0001)  MDS_READ_FIELD: opening global file: pickup_streamice.0000008640.data
(PID.TID 0000.0001) READ_MFLDS_LEV_RS: read field: "SI_hmask", #   3 in fldList, rec= 132
(PID.TID 0000.0001)  MDS_READ_FIELD: opening global file: pickup_streamice.0000008640.data
(PID.TID 0000.0001) READ_MFLDS_3D_RL: read field: "SI_uvel ", #   4 in fldList, rec= 133
(PID.TID 0000.0001)  MDS_READ_FIELD: opening global file: pickup_streamice.0000008640.data
(PID.TID 0000.0001) READ_MFLDS_3D_RL: read field: "SI_vvel ", #   5 in fldList, rec= 134
(PID.TID 0000.0001)  MDS_READ_FIELD: opening global file: pickup_streamice.0000008640.data
(PID.TID 0000.0001) READ_MFLDS_3D_RL: read field: "SI_thick", #   6 in fldList, rec= 135
(PID.TID 0000.0001)  MDS_READ_FIELD: opening global file: pickup_streamice.0000008640.data
(PID.TID 0000.0001) READ_MFLDS_3D_RL: read field: "SI_betaF", #   7 in fldList, rec= 136
(PID.TID 0000.0001)  MDS_READ_FIELD: opening global file: pickup_streamice.0000008640.data
(PID.TID 0000.0001) READ_MFLDS_3D_RL: read field: "SI_visc ", #   8 in fldList, rec= 137
(PID.TID 0000.0001)  MDS_READ_FIELD: opening global file: pickup_streamice.0000008640.data
(PID.TID 0000.0001) READ_MFLDS_3D_RL: read field: "SI_taubx", #   9 in fldList, rec= 138
(PID.TID 0000.0001)  MDS_READ_FIELD: opening global file: pickup_streamice.0000008640.data
(PID.TID 0000.0001) READ_MFLDS_3D_RL: read field: "SI_tauby", #  10 in fldList, rec= 139
(PID.TID 0000.0001)  MDS_READ_FIELD: opening global file: pickup_streamice.0000008640.data
(PID.TID 0000.0001) READ_MFLDS_CHECK: - normal end ; reset MFLDS file-name: pickup_streamice.0000008640
(PID.TID 0000.0001)  OBCS_FIELDS_LOAD: Reading initial data:      8640  2.592000000000E+06
(PID.TID 0000.0001)  MDS_READ_SEC_XZ: opening global file: vvel.obw
(PID.TID 0000.0001)  MDS_READ_SEC_XZ: opening global file: theta.obw
(PID.TID 0000.0001)  MDS_READ_SEC_XZ: opening global file: salt.obw
 SURF_ADJUSTMENT: Iter=        -1 Nb_pts,Vol=       171  4.38127265E+06
 SURF_ADJUSTMENT: Iter=      8640 Nb_pts,Vol=       171  4.38127265E+06
(PID.TID 0000.0001) // =======================================================
(PID.TID 0000.0001) // Model current state
(PID.TID 0000.0001) // =======================================================
(PID.TID 0000.0001) 
(PID.TID 0000.0001) // =======================================================
(PID.TID 0000.0001) // Begin MONITOR dynamic field statistics
(PID.TID 0000.0001) // =======================================================
(PID.TID 0000.0001) %MON time_tsnumber                =                  8640
(PID.TID 0000.0001) %MON time_secondsf                =   2.5920000000000E+06
(PID.TID 0000.0001) %MON dynstat_eta_max              =   4.1592741186818E+00
(PID.TID 0000.0001) %MON dynstat_eta_min              =  -6.9791723540598E+00
(PID.TID 0000.0001) %MON dynstat_eta_mean             =  -1.5244084974580E+00
(PID.TID 0000.0001) %MON dynstat_eta_sd               =   2.5541329063171E+00
(PID.TID 0000.0001) %MON dynstat_eta_del2             =   1.4285142308194E-01
(PID.TID 0000.0001) %MON dynstat_uvel_max             =   1.3215628340374E-13
(PID.TID 0000.0001) %MON dynstat_uvel_min             =  -1.3215628340374E-13
(PID.TID 0000.0001) %MON dynstat_uvel_mean            =   5.6309616056077E-27
(PID.TID 0000.0001) %MON dynstat_uvel_sd              =   1.7800762409723E-14
(PID.TID 0000.0001) %MON dynstat_uvel_del2            =   2.8442546504877E-16
(PID.TID 0000.0001) %MON dynstat_vvel_max             =   1.2275867525800E-01
(PID.TID 0000.0001) %MON dynstat_vvel_min             =  -5.1189800715382E-02
(PID.TID 0000.0001) %MON dynstat_vvel_mean            =  -8.3835883697893E-06
(PID.TID 0000.0001) %MON dynstat_vvel_sd              =   2.7929110132192E-02
(PID.TID 0000.0001) %MON dynstat_vvel_del2            =   9.6715498402697E-06
(PID.TID 0000.0001) %MON dynstat_wvel_max             =   4.5542775090712E-03
(PID.TID 0000.0001) %MON dynstat_wvel_min             =  -1.4488560868132E-03
(PID.TID 0000.0001) %MON dynstat_wvel_mean            =   3.9762946739217E-05
(PID.TID 0000.0001) %MON dynstat_wvel_sd              =   2.5326125835574E-04
(PID.TID 0000.0001) %MON dynstat_wvel_del2            =   1.6469736362839E-06
(PID.TID 0000.0001) %MON dynstat_theta_max            =   1.1967000000000E+00
(PID.TID 0000.0001) %MON dynstat_theta_min            =  -1.8899900059901E+00
(PID.TID 0000.0001) %MON dynstat_theta_mean           =  -4.1612672825420E-01
(PID.TID 0000.0001) %MON dynstat_theta_sd             =   6.6323001401574E-01
(PID.TID 0000.0001) %MON dynstat_theta_del2           =   1.8323425466788E-05
(PID.TID 0000.0001) %MON dynstat_salt_max             =   3.4696700000000E+01
(PID.TID 0000.0001) %MON dynstat_salt_min             =   3.3839697635406E+01
(PID.TID 0000.0001) %MON dynstat_salt_mean            =   3.4426659220864E+01
(PID.TID 0000.0001) %MON dynstat_salt_sd              =   1.0767310123176E-01
(PID.TID 0000.0001) %MON dynstat_salt_del2            =   9.0937062196990E-06
(PID.TID 0000.0001) %MON advcfl_uvel_max              =   1.1296220603905E-14
(PID.TID 0000.0001) %MON advcfl_vvel_max              =   4.2400074293654E-02
(PID.TID 0000.0001) %MON advcfl_wvel_max              =   1.3662832527214E-01
(PID.TID 0000.0001) %MON advcfl_W_hf_max              =   1.3662832527214E-01
(PID.TID 0000.0001) %MON pe_b_mean                    =   1.3107452348665E-01
(PID.TID 0000.0001) %MON ke_max                       =   7.4536418223429E-03
(PID.TID 0000.0001) %MON ke_mean                      =   3.8874725248275E-04
(PID.TID 0000.0001) %MON ke_vol                       =   1.3244501518584E+12
(PID.TID 0000.0001) // =======================================================
(PID.TID 0000.0001) // End MONITOR dynamic field statistics
(PID.TID 0000.0001) // =======================================================
(PID.TID 0000.0001) // =======================================================
(PID.TID 0000.0001) // Begin OBCS MONITOR field statistics
(PID.TID 0000.0001) // =======================================================
(PID.TID 0000.0001) %MON obc_N_vVel_max               =   2.5000000000000E-02
(PID.TID 0000.0001) %MON obc_N_vVel_min               =  -2.5000000000000E-02
(PID.TID 0000.0001) %MON obc_N_vVel_mean              =   2.5511584080271E-18
(PID.TID 0000.0001) %MON obc_N_vVel_sd                =   1.4578823256425E-02
(PID.TID 0000.0001) %MON obc_N_vVel_Int               =   3.2287061912939E-11
(PID.TID 0000.0001) // =======================================================
(PID.TID 0000.0001) // End OBCS MONITOR field statistics
(PID.TID 0000.0001) // =======================================================
(PID.TID 0000.0001) streamice solo_time_step: nIter0000008640 0.82E-01seconds
(PID.TID 0000.0001) CONJ GRAD INIT RESID LOCAL, 11 0.2642629E+24
(PID.TID 0000.0001) CONJ GRAD INIT RESID,  0.5140651E+12
(PID.TID 0000.0001) BEGINNING MAIN CG LOOP
 GOT HERE CG ITERATIONS          299
(PID.TID 0000.0001) streamice linear solve number    1  299 iterations
(PID.TID 0000.0001) STREAMICE_FP_ERROR =  2.38944649963400E-01
(PID.TID 0000.0001) VELOCITY SOLVE NOT CONVERGED IN     1 iterations
 time_step_loc    9.5129375951293768E-006
(PID.TID 0000.0001) END STREAMICE_ADVECT_THICKNESS
(PID.TID 0000.0001) SOLVE_FOR_PRESSURE: putPmEinXvector =    F
 cg2d: Sum(rhs),rhsMax =   2.94686265800047E-01  4.73597563275513E+01
(PID.TID 0000.0001)      cg2d_init_res =   5.50706443058272E-05
(PID.TID 0000.0001)      cg2d_iters(min,last) =      -1     109
(PID.TID 0000.0001)      cg2d_last_res =   9.95111179771617E-12
 SURF_ADJUSTMENT: Iter=      8641 Nb_pts,Vol=       171  4.38127265E+06
(PID.TID 0000.0001) CALLING FILL DIAGNOSTICS
(PID.TID 0000.0001) // =======================================================
(PID.TID 0000.0001) // Begin MONITOR dynamic field statistics
(PID.TID 0000.0001) // =======================================================
(PID.TID 0000.0001) %MON time_tsnumber                =                  8641
(PID.TID 0000.0001) %MON time_secondsf                =   2.5923000000000E+06
(PID.TID 0000.0001) %MON dynstat_eta_max              =   4.1593901830859E+00
(PID.TID 0000.0001) %MON dynstat_eta_min              =  -6.9791723540597E+00
(PID.TID 0000.0001) %MON dynstat_eta_mean             =  -1.5243704664920E+00
(PID.TID 0000.0001) %MON dynstat_eta_sd               =   2.5541441421069E+00
(PID.TID 0000.0001) %MON dynstat_eta_del2             =   1.4285149077265E-01
(PID.TID 0000.0001) %MON dynstat_uvel_max             =   1.4068387181152E-13
(PID.TID 0000.0001) %MON dynstat_uvel_min             =  -1.4068387181152E-13
(PID.TID 0000.0001) %MON dynstat_uvel_mean            =   5.6295357539762E-27
(PID.TID 0000.0001) %MON dynstat_uvel_sd              =   1.6890848011584E-14
(PID.TID 0000.0001) %MON dynstat_uvel_del2            =   2.7065863364909E-16
(PID.TID 0000.0001) %MON dynstat_vvel_max             =   1.2275484963860E-01
(PID.TID 0000.0001) %MON dynstat_vvel_min             =  -5.1188055117842E-02
(PID.TID 0000.0001) %MON dynstat_vvel_mean            =  -8.3832407406080E-06
(PID.TID 0000.0001) %MON dynstat_vvel_sd              =   2.7928424994770E-02
(PID.TID 0000.0001) %MON dynstat_vvel_del2            =   9.6714859882591E-06
(PID.TID 0000.0001) %MON dynstat_wvel_max             =   4.5540407858661E-03
(PID.TID 0000.0001) %MON dynstat_wvel_min             =  -1.4488885288333E-03
(PID.TID 0000.0001) %MON dynstat_wvel_mean            =   3.9762948461162E-05
(PID.TID 0000.0001) %MON dynstat_wvel_sd              =   2.5325440500564E-04
(PID.TID 0000.0001) %MON dynstat_wvel_del2            =   1.6469393480536E-06
(PID.TID 0000.0001) %MON dynstat_theta_max            =   1.1967000000000E+00
(PID.TID 0000.0001) %MON dynstat_theta_min            =  -1.8899914289347E+00
(PID.TID 0000.0001) %MON dynstat_theta_mean           =  -4.1611484356662E-01
(PID.TID 0000.0001) %MON dynstat_theta_sd             =   6.6322531132781E-01
(PID.TID 0000.0001) %MON dynstat_theta_del2           =   1.8324962811348E-05
(PID.TID 0000.0001) %MON dynstat_salt_max             =   3.4696700000000E+01
(PID.TID 0000.0001) %MON dynstat_salt_min             =   3.3841830400674E+01
(PID.TID 0000.0001) %MON dynstat_salt_mean            =   3.4426661112536E+01
(PID.TID 0000.0001) %MON dynstat_salt_sd              =   1.0766738901267E-01
(PID.TID 0000.0001) %MON dynstat_salt_del2            =   8.7646015481940E-06
(PID.TID 0000.0001) %MON advcfl_uvel_max              =   1.2025126694426E-14
(PID.TID 0000.0001) %MON advcfl_vvel_max              =   4.2398752948775E-02
(PID.TID 0000.0001) %MON advcfl_wvel_max              =   1.3662122357598E-01
(PID.TID 0000.0001) %MON advcfl_W_hf_max              =   1.3662122357598E-01
(PID.TID 0000.0001) %MON pe_b_mean                    =  -1.4255583202116E+00
(PID.TID 0000.0001) %MON ke_max                       =   7.4531653352935E-03
(PID.TID 0000.0001) %MON ke_mean                      =   3.8872815821458E-04
(PID.TID 0000.0001) %MON ke_vol                       =   1.3244503040000E+12
(PID.TID 0000.0001) // =======================================================
(PID.TID 0000.0001) // End MONITOR dynamic field statistics
(PID.TID 0000.0001) // =======================================================
(PID.TID 0000.0001) // =======================================================
(PID.TID 0000.0001) // Begin OBCS MONITOR field statistics
(PID.TID 0000.0001) // =======================================================
(PID.TID 0000.0001) %MON obc_N_vVel_max               =   2.5000000000000E-02
(PID.TID 0000.0001) %MON obc_N_vVel_min               =  -2.5000000000000E-02
(PID.TID 0000.0001) %MON obc_N_vVel_mean              =   2.5511584080271E-18
(PID.TID 0000.0001) %MON obc_N_vVel_sd                =   1.4578823256425E-02
(PID.TID 0000.0001) %MON obc_N_vVel_Int               =   3.2287061912939E-11
(PID.TID 0000.0001) // =======================================================
(PID.TID 0000.0001) // End OBCS MONITOR field statistics
(PID.TID 0000.0001) // =======================================================
 Computing Diagnostic #     23  ETAN         Counter:       1   Parms: SM      M1      
 Computing Diagnostic #     79  oceTAUX      Counter:       1   Parms: UU      U1      
           Vector  Mate for  oceTAUX      Diagnostic #     80  oceTAUY  exists 
 Computing Diagnostic #     80  oceTAUY      Counter:       1   Parms: VV      U1      
           Vector  Mate for  oceTAUY      Diagnostic #     79  oceTAUX  exists 
 Computing Diagnostic #     85  oceQnet      Counter:       1   Parms: SM      U1      
 Computing Diagnostic #     83  oceFWflx     Counter:       1   Parms: SM      U1      
 Computing Diagnostic #     76  MXLDEPTH     Counter:       1   Parms: SM      M1      
 Computing Diagnostic #    187  SHIfwFlx     Counter:       1   Parms: SM      L1      
 Computing Diagnostic #    188  SHIhtFlx     Counter:       1   Parms: SM      L1      
 Computing Diagnostic #    193  SHIgammT     Counter:       1   Parms: SM      L1      
 Computing Diagnostic #    194  SHIgammS     Counter:       1   Parms: SM      L1      
 Computing Diagnostic #    196  SHI_mass     Counter:       1   Parms: SM      L1      
 Computing Diagnostic #    195  SHIuStar     Counter:       1   Parms: SM      L1      
 Computing Diagnostic #    197  SHIRshel     Counter:       1   Parms: SM      L1      
 Computing Diagnostic #    198  SHI_MEff     Counter:       1   Parms: SM      L1      
 Computing Diagnostic #     30  UVEL         Counter:       1   Parms: UUR     MR      
           Vector  Mate for  UVEL         Diagnostic #     31  VVEL     exists 
 Computing Diagnostic #     31  VVEL         Counter:       1   Parms: VVR     MR      
           Vector  Mate for  VVEL         Diagnostic #     30  UVEL     exists 
 Computing Diagnostic #     32  WVEL         Counter:       1   Parms: WM      LR      
 Computing Diagnostic #     26  THETA        Counter:       1   Parms: SMR     MR      
 Computing Diagnostic #     27  SALT         Counter:       1   Parms: SMR     MR      
 Computing Diagnostic #     64  RHOAnoma     Counter:       1   Parms: SMR     MR      
 Computing Diagnostic #     78  CONVADJ      Counter:       1   Parms: SMR     LR      
 Computing Diagnostic #    199  SI_Uvel      Counter:       1   Parms: UZ      L1      
 Computing Diagnostic #    200  SI_Vvel      Counter:       1   Parms: VZ      L1      
 Computing Diagnostic #    201  SI_Thick     Counter:       1   Parms: SM      L1      
 Computing Diagnostic #    204  SI_hmask     Counter:       1   Parms: SM      L1      
 Computing Diagnostic #    203  SI_float     Counter:       1   Parms: SM      L1      
(PID.TID 0000.0001) streamice solo_time_step: nIter0000008641 0.82E-01seconds
 time_step_loc    9.5129375951293768E-006
(PID.TID 0000.0001) END STREAMICE_ADVECT_THICKNESS
 cg2d: Sum(rhs),rhsMax =   2.94678567617050E-01  4.73598119950701E+01
(PID.TID 0000.0001)      cg2d_init_res =   5.63388994735977E-05
(PID.TID 0000.0001)      cg2d_iters(min,last) =      -1     108
(PID.TID 0000.0001)      cg2d_last_res =   7.90895711176200E-12
 SURF_ADJUSTMENT: Iter=      8642 Nb_pts,Vol=       171  4.38127265E+06
(PID.TID 0000.0001) CALLING FILL DIAGNOSTICS
(PID.TID 0000.0001) // =======================================================
(PID.TID 0000.0001) // Begin MONITOR dynamic field statistics
(PID.TID 0000.0001) // =======================================================
(PID.TID 0000.0001) %MON time_tsnumber                =                  8642
(PID.TID 0000.0001) %MON time_secondsf                =   2.5926000000000E+06
(PID.TID 0000.0001) %MON dynstat_eta_max              =   4.1595062597199E+00
(PID.TID 0000.0001) %MON dynstat_eta_min              =  -6.9791723540597E+00
(PID.TID 0000.0001) %MON dynstat_eta_mean             =  -1.5243324366036E+00
(PID.TID 0000.0001) %MON dynstat_eta_sd               =   2.5541553764034E+00
(PID.TID 0000.0001) %MON dynstat_eta_del2             =   1.4285155846175E-01
(PID.TID 0000.0001) %MON dynstat_uvel_max             =   1.5534678656532E-13
(PID.TID 0000.0001) %MON dynstat_uvel_min             =  -1.5534678656532E-13
(PID.TID 0000.0001) %MON dynstat_uvel_mean            =   5.6281500335368E-27
(PID.TID 0000.0001) %MON dynstat_uvel_sd              =   1.6549443117484E-14
(PID.TID 0000.0001) %MON dynstat_uvel_del2            =   2.6483926506108E-16
(PID.TID 0000.0001) %MON dynstat_vvel_max             =   1.2275100841602E-01
(PID.TID 0000.0001) %MON dynstat_vvel_min             =  -5.1186323203071E-02
(PID.TID 0000.0001) %MON dynstat_vvel_mean            =  -8.4597268104167E-06
(PID.TID 0000.0001) %MON dynstat_vvel_sd              =   2.7927743819970E-02
(PID.TID 0000.0001) %MON dynstat_vvel_del2            =   9.6714343258750E-06
(PID.TID 0000.0001) %MON dynstat_wvel_max             =   4.5537973545868E-03
(PID.TID 0000.0001) %MON dynstat_wvel_min             =  -1.4491301380098E-03
(PID.TID 0000.0001) %MON dynstat_wvel_mean            =   3.9762874862387E-05
(PID.TID 0000.0001) %MON dynstat_wvel_sd              =   2.5324078863542E-04
(PID.TID 0000.0001) %MON dynstat_wvel_del2            =   1.6467528518116E-06
(PID.TID 0000.0001) %MON dynstat_theta_max            =   1.1967000000000E+00
(PID.TID 0000.0001) %MON dynstat_theta_min            =  -1.8899933247784E+00
(PID.TID 0000.0001) %MON dynstat_theta_mean           =  -4.1610296224014E-01
(PID.TID 0000.0001) %MON dynstat_theta_sd             =   6.6322060975594E-01
(PID.TID 0000.0001) %MON dynstat_theta_del2           =   1.8326387744467E-05
(PID.TID 0000.0001) %MON dynstat_salt_max             =   3.4696700000000E+01
(PID.TID 0000.0001) %MON dynstat_salt_min             =   3.3841860919836E+01
(PID.TID 0000.0001) %MON dynstat_salt_mean            =   3.4426661935984E+01
(PID.TID 0000.0001) %MON dynstat_salt_sd              =   1.0766686056946E-01
(PID.TID 0000.0001) %MON dynstat_salt_del2            =   8.7896422953059E-06
(PID.TID 0000.0001) %MON advcfl_uvel_max              =   1.3278457338184E-14
(PID.TID 0000.0001) %MON advcfl_vvel_max              =   4.2397426214659E-02
(PID.TID 0000.0001) %MON advcfl_wvel_max              =   1.3661392063760E-01
(PID.TID 0000.0001) %MON advcfl_W_hf_max              =   1.3661392063760E-01
(PID.TID 0000.0001) %MON pe_b_mean                    =  -1.4255383800083E+00
(PID.TID 0000.0001) %MON ke_max                       =   7.4526869379209E-03
(PID.TID 0000.0001) %MON ke_mean                      =   3.8870917549222E-04
(PID.TID 0000.0001) %MON ke_vol                       =   1.3244504561373E+12
(PID.TID 0000.0001) // =======================================================
(PID.TID 0000.0001) // End MONITOR dynamic field statistics
(PID.TID 0000.0001) // =======================================================
(PID.TID 0000.0001) // =======================================================
(PID.TID 0000.0001) // Begin OBCS MONITOR field statistics
(PID.TID 0000.0001) // =======================================================
(PID.TID 0000.0001) %MON obc_N_vVel_max               =   2.5000000000000E-02
(PID.TID 0000.0001) %MON obc_N_vVel_min               =  -2.5000000000000E-02
(PID.TID 0000.0001) %MON obc_N_vVel_mean              =   2.5511584080271E-18
(PID.TID 0000.0001) %MON obc_N_vVel_sd                =   1.4578823256425E-02
(PID.TID 0000.0001) %MON obc_N_vVel_Int               =   3.2287061912939E-11
(PID.TID 0000.0001) // =======================================================
(PID.TID 0000.0001) // End OBCS MONITOR field statistics
(PID.TID 0000.0001) // =======================================================
 Computing Diagnostic #     23  ETAN         Counter:       1   Parms: SM      M1      
 Computing Diagnostic #     79  oceTAUX      Counter:       1   Parms: UU      U1      
           Vector  Mate for  oceTAUX      Diagnostic #     80  oceTAUY  exists 
 Computing Diagnostic #     80  oceTAUY      Counter:       1   Parms: VV      U1      
           Vector  Mate for  oceTAUY      Diagnostic #     79  oceTAUX  exists 
 Computing Diagnostic #     85  oceQnet      Counter:       1   Parms: SM      U1      
 Computing Diagnostic #     83  oceFWflx     Counter:       1   Parms: SM      U1      
 Computing Diagnostic #     76  MXLDEPTH     Counter:       1   Parms: SM      M1      
 Computing Diagnostic #    187  SHIfwFlx     Counter:       1   Parms: SM      L1      
 Computing Diagnostic #    188  SHIhtFlx     Counter:       1   Parms: SM      L1      
 Computing Diagnostic #    193  SHIgammT     Counter:       1   Parms: SM      L1      
 Computing Diagnostic #    194  SHIgammS     Counter:       1   Parms: SM      L1      
 Computing Diagnostic #    196  SHI_mass     Counter:       1   Parms: SM      L1      
 Computing Diagnostic #    195  SHIuStar     Counter:       1   Parms: SM      L1      
 Computing Diagnostic #    197  SHIRshel     Counter:       1   Parms: SM      L1      
 Computing Diagnostic #    198  SHI_MEff     Counter:       1   Parms: SM      L1      
 Computing Diagnostic #     30  UVEL         Counter:       1   Parms: UUR     MR      
           Vector  Mate for  UVEL         Diagnostic #     31  VVEL     exists 
 Computing Diagnostic #     31  VVEL         Counter:       1   Parms: VVR     MR      
           Vector  Mate for  VVEL         Diagnostic #     30  UVEL     exists 
 Computing Diagnostic #     32  WVEL         Counter:       1   Parms: WM      LR      
 Computing Diagnostic #     26  THETA        Counter:       1   Parms: SMR     MR      
 Computing Diagnostic #     27  SALT         Counter:       1   Parms: SMR     MR      
 Computing Diagnostic #     64  RHOAnoma     Counter:       1   Parms: SMR     MR      
 Computing Diagnostic #     78  CONVADJ      Counter:       1   Parms: SMR     LR      
 Computing Diagnostic #    199  SI_Uvel      Counter:       1   Parms: UZ      L1      
 Computing Diagnostic #    200  SI_Vvel      Counter:       1   Parms: VZ      L1      
 Computing Diagnostic #    201  SI_Thick     Counter:       1   Parms: SM      L1      
 Computing Diagnostic #    204  SI_hmask     Counter:       1   Parms: SM      L1      
 Computing Diagnostic #    203  SI_float     Counter:       1   Parms: SM      L1      
(PID.TID 0000.0001) streamice solo_time_step: nIter0000008642 0.82E-01seconds
 time_step_loc    9.5129375951293768E-006
(PID.TID 0000.0001) END STREAMICE_ADVECT_THICKNESS
 cg2d: Sum(rhs),rhsMax =   2.94670869381899E-01  4.73598676886768E+01
(PID.TID 0000.0001)      cg2d_init_res =   5.51203599300104E-05
(PID.TID 0000.0001)      cg2d_iters(min,last) =      -1     110
(PID.TID 0000.0001)      cg2d_last_res =   3.70674892608865E-12
 SURF_ADJUSTMENT: Iter=      8643 Nb_pts,Vol=       171  4.38127265E+06
(PID.TID 0000.0001) CALLING FILL DIAGNOSTICS
(PID.TID 0000.0001) // =======================================================
(PID.TID 0000.0001) // Begin MONITOR dynamic field statistics
(PID.TID 0000.0001) // =======================================================
(PID.TID 0000.0001) %MON time_tsnumber                =                  8643
(PID.TID 0000.0001) %MON time_secondsf                =   2.5929000000000E+06
(PID.TID 0000.0001) %MON dynstat_eta_max              =   4.1596223828623E+00
(PID.TID 0000.0001) %MON dynstat_eta_min              =  -6.9791723540598E+00
(PID.TID 0000.0001) %MON dynstat_eta_mean             =  -1.5242944071916E+00
(PID.TID 0000.0001) %MON dynstat_eta_sd               =   2.5541666088250E+00
(PID.TID 0000.0001) %MON dynstat_eta_del2             =   1.4285162616587E-01
(PID.TID 0000.0001) %MON dynstat_uvel_max             =   1.0209132922159E-13
(PID.TID 0000.0001) %MON dynstat_uvel_min             =  -1.4096673250309E-13
(PID.TID 0000.0001) %MON dynstat_uvel_mean            =   5.6285622870521E-27
(PID.TID 0000.0001) %MON dynstat_uvel_sd              =   1.6157151256561E-14
(PID.TID 0000.0001) %MON dynstat_uvel_del2            =   2.5873897679127E-16
(PID.TID 0000.0001) %MON dynstat_vvel_max             =   1.2274714799168E-01
(PID.TID 0000.0001) %MON dynstat_vvel_min             =  -5.1184604039193E-02
(PID.TID 0000.0001) %MON dynstat_vvel_mean            =  -8.4498656070051E-06
(PID.TID 0000.0001) %MON dynstat_vvel_sd              =   2.7927062969442E-02
(PID.TID 0000.0001) %MON dynstat_vvel_del2            =   9.6713764473083E-06
(PID.TID 0000.0001) %MON dynstat_wvel_max             =   4.5535491573469E-03
(PID.TID 0000.0001) %MON dynstat_wvel_min             =  -1.4491905784824E-03
(PID.TID 0000.0001) %MON dynstat_wvel_mean            =   3.9762725680368E-05
(PID.TID 0000.0001) %MON dynstat_wvel_sd              =   2.5323287000863E-04
(PID.TID 0000.0001) %MON dynstat_wvel_del2            =   1.6466815092433E-06
(PID.TID 0000.0001) %MON dynstat_theta_max            =   1.1967000000000E+00
(PID.TID 0000.0001) %MON dynstat_theta_min            =  -1.8899952242769E+00
(PID.TID 0000.0001) %MON dynstat_theta_mean           =  -4.1609108415855E-01
(PID.TID 0000.0001) %MON dynstat_theta_sd             =   6.6321590913678E-01
(PID.TID 0000.0001) %MON dynstat_theta_del2           =   1.8327799522251E-05
(PID.TID 0000.0001) %MON dynstat_salt_max             =   3.4696700000000E+01
(PID.TID 0000.0001) %MON dynstat_salt_min             =   3.3841891773416E+01
(PID.TID 0000.0001) %MON dynstat_salt_mean            =   3.4426662761119E+01
(PID.TID 0000.0001) %MON dynstat_salt_sd              =   1.0766632551095E-01
(PID.TID 0000.0001) %MON dynstat_salt_del2            =   8.8123416116803E-06
(PID.TID 0000.0001) %MON advcfl_uvel_max              =   1.1566606638443E-14
(PID.TID 0000.0001) %MON advcfl_vvel_max              =   4.2396092848373E-02
(PID.TID 0000.0001) %MON advcfl_wvel_max              =   1.3660647472041E-01
(PID.TID 0000.0001) %MON advcfl_W_hf_max              =   1.3660647472041E-01
(PID.TID 0000.0001) %MON pe_b_mean                    =  -1.4255184255216E+00
(PID.TID 0000.0001) %MON ke_max                       =   7.4522062180309E-03
(PID.TID 0000.0001) %MON ke_mean                      =   3.8869020158729E-04
(PID.TID 0000.0001) %MON ke_vol                       =   1.3244506082704E+12
(PID.TID 0000.0001) // =======================================================
(PID.TID 0000.0001) // End MONITOR dynamic field statistics
(PID.TID 0000.0001) // =======================================================
(PID.TID 0000.0001) // =======================================================
(PID.TID 0000.0001) // Begin OBCS MONITOR field statistics
(PID.TID 0000.0001) // =======================================================
(PID.TID 0000.0001) %MON obc_N_vVel_max               =   2.5000000000000E-02
(PID.TID 0000.0001) %MON obc_N_vVel_min               =  -2.5000000000000E-02
(PID.TID 0000.0001) %MON obc_N_vVel_mean              =   2.5511584080271E-18
(PID.TID 0000.0001) %MON obc_N_vVel_sd                =   1.4578823256425E-02
(PID.TID 0000.0001) %MON obc_N_vVel_Int               =   3.2287061912939E-11
(PID.TID 0000.0001) // =======================================================
(PID.TID 0000.0001) // End OBCS MONITOR field statistics
(PID.TID 0000.0001) // =======================================================
 Computing Diagnostic #     23  ETAN         Counter:       1   Parms: SM      M1      
 Computing Diagnostic #     79  oceTAUX      Counter:       1   Parms: UU      U1      
           Vector  Mate for  oceTAUX      Diagnostic #     80  oceTAUY  exists 
 Computing Diagnostic #     80  oceTAUY      Counter:       1   Parms: VV      U1      
           Vector  Mate for  oceTAUY      Diagnostic #     79  oceTAUX  exists 
 Computing Diagnostic #     85  oceQnet      Counter:       1   Parms: SM      U1      
 Computing Diagnostic #     83  oceFWflx     Counter:       1   Parms: SM      U1      
 Computing Diagnostic #     76  MXLDEPTH     Counter:       1   Parms: SM      M1      
 Computing Diagnostic #    187  SHIfwFlx     Counter:       1   Parms: SM      L1      
 Computing Diagnostic #    188  SHIhtFlx     Counter:       1   Parms: SM      L1      
 Computing Diagnostic #    193  SHIgammT     Counter:       1   Parms: SM      L1      
 Computing Diagnostic #    194  SHIgammS     Counter:       1   Parms: SM      L1      
 Computing Diagnostic #    196  SHI_mass     Counter:       1   Parms: SM      L1      
 Computing Diagnostic #    195  SHIuStar     Counter:       1   Parms: SM      L1      
 Computing Diagnostic #    197  SHIRshel     Counter:       1   Parms: SM      L1      
 Computing Diagnostic #    198  SHI_MEff     Counter:       1   Parms: SM      L1      
 Computing Diagnostic #     30  UVEL         Counter:       1   Parms: UUR     MR      
           Vector  Mate for  UVEL         Diagnostic #     31  VVEL     exists 
 Computing Diagnostic #     31  VVEL         Counter:       1   Parms: VVR     MR      
           Vector  Mate for  VVEL         Diagnostic #     30  UVEL     exists 
 Computing Diagnostic #     32  WVEL         Counter:       1   Parms: WM      LR      
 Computing Diagnostic #     26  THETA        Counter:       1   Parms: SMR     MR      
 Computing Diagnostic #     27  SALT         Counter:       1   Parms: SMR     MR      
 Computing Diagnostic #     64  RHOAnoma     Counter:       1   Parms: SMR     MR      
 Computing Diagnostic #     78  CONVADJ      Counter:       1   Parms: SMR     LR      
 Computing Diagnostic #    199  SI_Uvel      Counter:       1   Parms: UZ      L1      
 Computing Diagnostic #    200  SI_Vvel      Counter:       1   Parms: VZ      L1      
 Computing Diagnostic #    201  SI_Thick     Counter:       1   Parms: SM      L1      
 Computing Diagnostic #    204  SI_hmask     Counter:       1   Parms: SM      L1      
 Computing Diagnostic #    203  SI_float     Counter:       1   Parms: SM      L1      
(PID.TID 0000.0001) streamice solo_time_step: nIter0000008643 0.82E-01seconds
 time_step_loc    9.5129375951293768E-006
(PID.TID 0000.0001) END STREAMICE_ADVECT_THICKNESS
 cg2d: Sum(rhs),rhsMax =   2.94663171222269E-01  4.73599234067788E+01
(PID.TID 0000.0001)      cg2d_init_res =   5.50934000618347E-05
(PID.TID 0000.0001)      cg2d_iters(min,last) =      -1     110
(PID.TID 0000.0001)      cg2d_last_res =   3.69792426361625E-12
 SURF_ADJUSTMENT: Iter=      8644 Nb_pts,Vol=       171  4.38127265E+06
(PID.TID 0000.0001) CALLING FILL DIAGNOSTICS
(PID.TID 0000.0001) // =======================================================
(PID.TID 0000.0001) // Begin MONITOR dynamic field statistics
(PID.TID 0000.0001) // =======================================================
(PID.TID 0000.0001) %MON time_tsnumber                =                  8644
(PID.TID 0000.0001) %MON time_secondsf                =   2.5932000000000E+06
(PID.TID 0000.0001) %MON dynstat_eta_max              =   4.1597385911942E+00
(PID.TID 0000.0001) %MON dynstat_eta_min              =  -6.9791723540597E+00
(PID.TID 0000.0001) %MON dynstat_eta_mean             =  -1.5242563788649E+00
(PID.TID 0000.0001) %MON dynstat_eta_sd               =   2.5541778425169E+00
(PID.TID 0000.0001) %MON dynstat_eta_del2             =   1.4285169390095E-01
(PID.TID 0000.0001) %MON dynstat_uvel_max             =   2.2803915980319E-13
(PID.TID 0000.0001) %MON dynstat_uvel_min             =  -2.2349499490530E-13
(PID.TID 0000.0001) %MON dynstat_uvel_mean            =   5.6266296844892E-27
(PID.TID 0000.0001) %MON dynstat_uvel_sd              =   1.5145450708230E-14
(PID.TID 0000.0001) %MON dynstat_uvel_del2            =   2.4720972151273E-16
(PID.TID 0000.0001) %MON dynstat_vvel_max             =   1.2274329838829E-01
(PID.TID 0000.0001) %MON dynstat_vvel_min             =  -5.1182876004760E-02
(PID.TID 0000.0001) %MON dynstat_vvel_mean            =  -8.4332290314830E-06
(PID.TID 0000.0001) %MON dynstat_vvel_sd              =   2.7926382898410E-02
(PID.TID 0000.0001) %MON dynstat_vvel_del2            =   9.6713172836372E-06
(PID.TID 0000.0001) %MON dynstat_wvel_max             =   4.5533069717217E-03
(PID.TID 0000.0001) %MON dynstat_wvel_min             =  -1.4492728563763E-03
(PID.TID 0000.0001) %MON dynstat_wvel_mean            =   3.9762609986252E-05
(PID.TID 0000.0001) %MON dynstat_wvel_sd              =   2.5322382641115E-04
(PID.TID 0000.0001) %MON dynstat_wvel_del2            =   1.6466127717642E-06
(PID.TID 0000.0001) %MON dynstat_theta_max            =   1.1967000000000E+00
(PID.TID 0000.0001) %MON dynstat_theta_min            =  -1.8899971995621E+00
(PID.TID 0000.0001) %MON dynstat_theta_mean           =  -4.1607920924959E-01
(PID.TID 0000.0001) %MON dynstat_theta_sd             =   6.6321120943495E-01
(PID.TID 0000.0001) %MON dynstat_theta_del2           =   1.8329194124668E-05
(PID.TID 0000.0001) %MON dynstat_salt_max             =   3.4696700000000E+01
(PID.TID 0000.0001) %MON dynstat_salt_min             =   3.3841921991644E+01
(PID.TID 0000.0001) %MON dynstat_salt_mean            =   3.4426663587501E+01
(PID.TID 0000.0001) %MON dynstat_salt_sd              =   1.0766578567671E-01
(PID.TID 0000.0001) %MON dynstat_salt_del2            =   8.8329681347664E-06
(PID.TID 0000.0001) %MON advcfl_uvel_max              =   1.8525879343662E-14
(PID.TID 0000.0001) %MON advcfl_vvel_max              =   4.2394763219577E-02
(PID.TID 0000.0001) %MON advcfl_wvel_max              =   1.3659920915165E-01
(PID.TID 0000.0001) %MON advcfl_W_hf_max              =   1.3659920915165E-01
(PID.TID 0000.0001) %MON pe_b_mean                    =  -1.4254984582648E+00
(PID.TID 0000.0001) %MON ke_max                       =   7.4517269090788E-03
(PID.TID 0000.0001) %MON ke_mean                      =   3.8867124977422E-04
(PID.TID 0000.0001) %MON ke_vol                       =   1.3244507604015E+12
(PID.TID 0000.0001) // =======================================================
(PID.TID 0000.0001) // End MONITOR dynamic field statistics
(PID.TID 0000.0001) // =======================================================
(PID.TID 0000.0001) // =======================================================
(PID.TID 0000.0001) // Begin OBCS MONITOR field statistics
(PID.TID 0000.0001) // =======================================================
(PID.TID 0000.0001) %MON obc_N_vVel_max               =   2.5000000000000E-02
(PID.TID 0000.0001) %MON obc_N_vVel_min               =  -2.5000000000000E-02
(PID.TID 0000.0001) %MON obc_N_vVel_mean              =   2.5511584080271E-18
(PID.TID 0000.0001) %MON obc_N_vVel_sd                =   1.4578823256425E-02
(PID.TID 0000.0001) %MON obc_N_vVel_Int               =   3.2287061912939E-11
(PID.TID 0000.0001) // =======================================================
(PID.TID 0000.0001) // End OBCS MONITOR field statistics
(PID.TID 0000.0001) // =======================================================
 Computing Diagnostic #     23  ETAN         Counter:       1   Parms: SM      M1      
 Computing Diagnostic #     79  oceTAUX      Counter:       1   Parms: UU      U1      
           Vector  Mate for  oceTAUX      Diagnostic #     80  oceTAUY  exists 
 Computing Diagnostic #     80  oceTAUY      Counter:       1   Parms: VV      U1      
           Vector  Mate for  oceTAUY      Diagnostic #     79  oceTAUX  exists 
 Computing Diagnostic #     85  oceQnet      Counter:       1   Parms: SM      U1      
 Computing Diagnostic #     83  oceFWflx     Counter:       1   Parms: SM      U1      
 Computing Diagnostic #     76  MXLDEPTH     Counter:       1   Parms: SM      M1      
 Computing Diagnostic #    187  SHIfwFlx     Counter:       1   Parms: SM      L1      
 Computing Diagnostic #    188  SHIhtFlx     Counter:       1   Parms: SM      L1      
 Computing Diagnostic #    193  SHIgammT     Counter:       1   Parms: SM      L1      
 Computing Diagnostic #    194  SHIgammS     Counter:       1   Parms: SM      L1      
 Computing Diagnostic #    196  SHI_mass     Counter:       1   Parms: SM      L1      
 Computing Diagnostic #    195  SHIuStar     Counter:       1   Parms: SM      L1      
 Computing Diagnostic #    197  SHIRshel     Counter:       1   Parms: SM      L1      
 Computing Diagnostic #    198  SHI_MEff     Counter:       1   Parms: SM      L1      
 Computing Diagnostic #     30  UVEL         Counter:       1   Parms: UUR     MR      
           Vector  Mate for  UVEL         Diagnostic #     31  VVEL     exists 
 Computing Diagnostic #     31  VVEL         Counter:       1   Parms: VVR     MR      
           Vector  Mate for  VVEL         Diagnostic #     30  UVEL     exists 
 Computing Diagnostic #     32  WVEL         Counter:       1   Parms: WM      LR      
 Computing Diagnostic #     26  THETA        Counter:       1   Parms: SMR     MR      
 Computing Diagnostic #     27  SALT         Counter:       1   Parms: SMR     MR      
 Computing Diagnostic #     64  RHOAnoma     Counter:       1   Parms: SMR     MR      
 Computing Diagnostic #     78  CONVADJ      Counter:       1   Parms: SMR     LR      
 Computing Diagnostic #    199  SI_Uvel      Counter:       1   Parms: UZ      L1      
 Computing Diagnostic #    200  SI_Vvel      Counter:       1   Parms: VZ      L1      
 Computing Diagnostic #    201  SI_Thick     Counter:       1   Parms: SM      L1      
 Computing Diagnostic #    204  SI_hmask     Counter:       1   Parms: SM      L1      
 Computing Diagnostic #    203  SI_float     Counter:       1   Parms: SM      L1      
(PID.TID 0000.0001) streamice solo_time_step: nIter0000008644 0.82E-01seconds
 time_step_loc    9.5129375951293768E-006
(PID.TID 0000.0001) END STREAMICE_ADVECT_THICKNESS
 cg2d: Sum(rhs),rhsMax =   2.94655473310201E-01  4.73599791230100E+01
(PID.TID 0000.0001)      cg2d_init_res =   5.50838893452088E-05
(PID.TID 0000.0001)      cg2d_iters(min,last) =      -1     110
(PID.TID 0000.0001)      cg2d_last_res =   3.69056440428818E-12
 SURF_ADJUSTMENT: Iter=      8645 Nb_pts,Vol=       171  4.38127265E+06
(PID.TID 0000.0001) CALLING FILL DIAGNOSTICS
(PID.TID 0000.0001) // =======================================================
(PID.TID 0000.0001) // Begin MONITOR dynamic field statistics
(PID.TID 0000.0001) // =======================================================
(PID.TID 0000.0001) %MON time_tsnumber                =                  8645
(PID.TID 0000.0001) %MON time_secondsf                =   2.5935000000000E+06
(PID.TID 0000.0001) %MON dynstat_eta_max              =   4.1598548804293E+00
(PID.TID 0000.0001) %MON dynstat_eta_min              =  -6.9791723540597E+00
(PID.TID 0000.0001) %MON dynstat_eta_mean             =  -1.5242183516649E+00
(PID.TID 0000.0001) %MON dynstat_eta_sd               =   2.5541890809326E+00
(PID.TID 0000.0001) %MON dynstat_eta_del2             =   1.4285176165474E-01
(PID.TID 0000.0001) %MON dynstat_uvel_max             =   1.4857094573755E-13
(PID.TID 0000.0001) %MON dynstat_uvel_min             =  -1.4857094573755E-13
(PID.TID 0000.0001) %MON dynstat_uvel_mean            =   5.6266311167024E-27
(PID.TID 0000.0001) %MON dynstat_uvel_sd              =   1.6478781059075E-14
(PID.TID 0000.0001) %MON dynstat_uvel_del2            =   2.6529632285571E-16
(PID.TID 0000.0001) %MON dynstat_vvel_max             =   1.2273948589516E-01
(PID.TID 0000.0001) %MON dynstat_vvel_min             =  -5.1181126143353E-02
(PID.TID 0000.0001) %MON dynstat_vvel_mean            =  -8.4166394427716E-06
(PID.TID 0000.0001) %MON dynstat_vvel_sd              =   2.7925703631096E-02
(PID.TID 0000.0001) %MON dynstat_vvel_del2            =   9.6712579267985E-06
(PID.TID 0000.0001) %MON dynstat_wvel_max             =   4.5530749837526E-03
(PID.TID 0000.0001) %MON dynstat_wvel_min             =  -1.4493268907055E-03
(PID.TID 0000.0001) %MON dynstat_wvel_mean            =   3.9762602005051E-05
(PID.TID 0000.0001) %MON dynstat_wvel_sd              =   2.5321562766775E-04
(PID.TID 0000.0001) %MON dynstat_wvel_del2            =   1.6465705304834E-06
(PID.TID 0000.0001) %MON dynstat_theta_max            =   1.1967000000000E+00
(PID.TID 0000.0001) %MON dynstat_theta_min            =  -1.8899991958623E+00
(PID.TID 0000.0001) %MON dynstat_theta_mean           =  -4.1606733743437E-01
(PID.TID 0000.0001) %MON dynstat_theta_sd             =   6.6320651057606E-01
(PID.TID 0000.0001) %MON dynstat_theta_del2           =   1.8330588376255E-05
(PID.TID 0000.0001) %MON dynstat_salt_max             =   3.4696700000000E+01
(PID.TID 0000.0001) %MON dynstat_salt_min             =   3.3841951072541E+01
(PID.TID 0000.0001) %MON dynstat_salt_mean            =   3.4426664415079E+01
(PID.TID 0000.0001) %MON dynstat_salt_sd              =   1.0766524116454E-01
(PID.TID 0000.0001) %MON dynstat_salt_del2            =   8.8516601592149E-06
(PID.TID 0000.0001) %MON advcfl_uvel_max              =   1.2705921770183E-14
(PID.TID 0000.0001) %MON advcfl_vvel_max              =   4.2393446408428E-02
(PID.TID 0000.0001) %MON advcfl_wvel_max              =   1.3659224951258E-01
(PID.TID 0000.0001) %MON advcfl_W_hf_max              =   1.3659224951258E-01
(PID.TID 0000.0001) %MON pe_b_mean                    =  -1.4254784887406E+00
(PID.TID 0000.0001) %MON ke_max                       =   7.4512522143211E-03
(PID.TID 0000.0001) %MON ke_mean                      =   3.8865232081287E-04
(PID.TID 0000.0001) %MON ke_vol                       =   1.3244509125282E+12
(PID.TID 0000.0001) // =======================================================
(PID.TID 0000.0001) // End MONITOR dynamic field statistics
(PID.TID 0000.0001) // =======================================================
(PID.TID 0000.0001) // =======================================================
(PID.TID 0000.0001) // Begin OBCS MONITOR field statistics
(PID.TID 0000.0001) // =======================================================
(PID.TID 0000.0001) %MON obc_N_vVel_max               =   2.5000000000000E-02
(PID.TID 0000.0001) %MON obc_N_vVel_min               =  -2.5000000000000E-02
(PID.TID 0000.0001) %MON obc_N_vVel_mean              =   2.5511584080271E-18
(PID.TID 0000.0001) %MON obc_N_vVel_sd                =   1.4578823256425E-02
(PID.TID 0000.0001) %MON obc_N_vVel_Int               =   3.2287061912939E-11
(PID.TID 0000.0001) // =======================================================
(PID.TID 0000.0001) // End OBCS MONITOR field statistics
(PID.TID 0000.0001) // =======================================================
 Computing Diagnostic #     23  ETAN         Counter:       1   Parms: SM      M1      
 Computing Diagnostic #     79  oceTAUX      Counter:       1   Parms: UU      U1      
           Vector  Mate for  oceTAUX      Diagnostic #     80  oceTAUY  exists 
 Computing Diagnostic #     80  oceTAUY      Counter:       1   Parms: VV      U1      
           Vector  Mate for  oceTAUY      Diagnostic #     79  oceTAUX  exists 
 Computing Diagnostic #     85  oceQnet      Counter:       1   Parms: SM      U1      
 Computing Diagnostic #     83  oceFWflx     Counter:       1   Parms: SM      U1      
 Computing Diagnostic #     76  MXLDEPTH     Counter:       1   Parms: SM      M1      
 Computing Diagnostic #    187  SHIfwFlx     Counter:       1   Parms: SM      L1      
 Computing Diagnostic #    188  SHIhtFlx     Counter:       1   Parms: SM      L1      
 Computing Diagnostic #    193  SHIgammT     Counter:       1   Parms: SM      L1      
 Computing Diagnostic #    194  SHIgammS     Counter:       1   Parms: SM      L1      
 Computing Diagnostic #    196  SHI_mass     Counter:       1   Parms: SM      L1      
 Computing Diagnostic #    195  SHIuStar     Counter:       1   Parms: SM      L1      
 Computing Diagnostic #    197  SHIRshel     Counter:       1   Parms: SM      L1      
 Computing Diagnostic #    198  SHI_MEff     Counter:       1   Parms: SM      L1      
 Computing Diagnostic #     30  UVEL         Counter:       1   Parms: UUR     MR      
           Vector  Mate for  UVEL         Diagnostic #     31  VVEL     exists 
 Computing Diagnostic #     31  VVEL         Counter:       1   Parms: VVR     MR      
           Vector  Mate for  VVEL         Diagnostic #     30  UVEL     exists 
 Computing Diagnostic #     32  WVEL         Counter:       1   Parms: WM      LR      
 Computing Diagnostic #     26  THETA        Counter:       1   Parms: SMR     MR      
 Computing Diagnostic #     27  SALT         Counter:       1   Parms: SMR     MR      
 Computing Diagnostic #     64  RHOAnoma     Counter:       1   Parms: SMR     MR      
 Computing Diagnostic #     78  CONVADJ      Counter:       1   Parms: SMR     LR      
 Computing Diagnostic #    199  SI_Uvel      Counter:       1   Parms: UZ      L1      
 Computing Diagnostic #    200  SI_Vvel      Counter:       1   Parms: VZ      L1      
 Computing Diagnostic #    201  SI_Thick     Counter:       1   Parms: SM      L1      
 Computing Diagnostic #    204  SI_hmask     Counter:       1   Parms: SM      L1      
 Computing Diagnostic #    203  SI_float     Counter:       1   Parms: SM      L1      
(PID.TID 0000.0001) streamice solo_time_step: nIter0000008645 0.82E-01seconds
 time_step_loc    9.5129375951293768E-006
(PID.TID 0000.0001) END STREAMICE_ADVECT_THICKNESS
 cg2d: Sum(rhs),rhsMax =   2.94647775762762E-01  4.73600348185222E+01
(PID.TID 0000.0001)      cg2d_init_res =   5.50756708043770E-05
(PID.TID 0000.0001)      cg2d_iters(min,last) =      -1     110
(PID.TID 0000.0001)      cg2d_last_res =   3.68763562630878E-12
 SURF_ADJUSTMENT: Iter=      8646 Nb_pts,Vol=       171  4.38127265E+06
(PID.TID 0000.0001) CALLING FILL DIAGNOSTICS
(PID.TID 0000.0001) // =======================================================
(PID.TID 0000.0001) // Begin MONITOR dynamic field statistics
(PID.TID 0000.0001) // =======================================================
(PID.TID 0000.0001) %MON time_tsnumber                =                  8646
(PID.TID 0000.0001) %MON time_secondsf                =   2.5938000000000E+06
(PID.TID 0000.0001) %MON dynstat_eta_max              =   4.1599711844368E+00
(PID.TID 0000.0001) %MON dynstat_eta_min              =  -6.9791723540599E+00
(PID.TID 0000.0001) %MON dynstat_eta_mean             =  -1.5241803255906E+00
(PID.TID 0000.0001) %MON dynstat_eta_sd               =   2.5542003241558E+00
(PID.TID 0000.0001) %MON dynstat_eta_del2             =   1.4285182940376E-01
(PID.TID 0000.0001) %MON dynstat_uvel_max             =   1.1192088799134E-13
(PID.TID 0000.0001) %MON dynstat_uvel_min             =  -1.2990581225451E-13
(PID.TID 0000.0001) %MON dynstat_uvel_mean            =   5.6311164894211E-27
(PID.TID 0000.0001) %MON dynstat_uvel_sd              =   1.5259687454807E-14
(PID.TID 0000.0001) %MON dynstat_uvel_del2            =   2.4523353609950E-16
(PID.TID 0000.0001) %MON dynstat_vvel_max             =   1.2273570607713E-01
(PID.TID 0000.0001) %MON dynstat_vvel_min             =  -5.1179361796169E-02
(PID.TID 0000.0001) %MON dynstat_vvel_mean            =  -8.4037704580152E-06
(PID.TID 0000.0001) %MON dynstat_vvel_sd              =   2.7925025223543E-02
(PID.TID 0000.0001) %MON dynstat_vvel_del2            =   9.6711985702600E-06
(PID.TID 0000.0001) %MON dynstat_wvel_max             =   4.5528482542654E-03
(PID.TID 0000.0001) %MON dynstat_wvel_min             =  -1.4493609174927E-03
(PID.TID 0000.0001) %MON dynstat_wvel_mean            =   3.9762677944891E-05
(PID.TID 0000.0001) %MON dynstat_wvel_sd              =   2.5320807484242E-04
(PID.TID 0000.0001) %MON dynstat_wvel_del2            =   1.6465438861930E-06
(PID.TID 0000.0001) %MON dynstat_theta_max            =   1.1967000000000E+00
(PID.TID 0000.0001) %MON dynstat_theta_min            =  -1.8900011787418E+00
(PID.TID 0000.0001) %MON dynstat_theta_mean           =  -4.1605546873934E-01
(PID.TID 0000.0001) %MON dynstat_theta_sd             =   6.6320181259484E-01
(PID.TID 0000.0001) %MON dynstat_theta_del2           =   1.8331991993422E-05
(PID.TID 0000.0001) %MON dynstat_salt_max             =   3.4696700000000E+01
(PID.TID 0000.0001) %MON dynstat_salt_min             =   3.3841978620277E+01
(PID.TID 0000.0001) %MON dynstat_salt_mean            =   3.4426665243749E+01
(PID.TID 0000.0001) %MON dynstat_salt_sd              =   1.0766469230280E-01
(PID.TID 0000.0001) %MON dynstat_salt_del2            =   8.8685894096930E-06
(PID.TID 0000.0001) %MON advcfl_uvel_max              =   1.0745024658815E-14
(PID.TID 0000.0001) %MON advcfl_vvel_max              =   4.2392140883056E-02
(PID.TID 0000.0001) %MON advcfl_wvel_max              =   1.3658544762796E-01
(PID.TID 0000.0001) %MON advcfl_W_hf_max              =   1.3658544762796E-01
(PID.TID 0000.0001) %MON pe_b_mean                    =  -1.4254585268490E+00
(PID.TID 0000.0001) %MON ke_max                       =   7.4507815292237E-03
(PID.TID 0000.0001) %MON ke_mean                      =   3.8863341630079E-04
(PID.TID 0000.0001) %MON ke_vol                       =   1.3244510646505E+12
(PID.TID 0000.0001) // =======================================================
(PID.TID 0000.0001) // End MONITOR dynamic field statistics
(PID.TID 0000.0001) // =======================================================
(PID.TID 0000.0001) // =======================================================
(PID.TID 0000.0001) // Begin OBCS MONITOR field statistics
(PID.TID 0000.0001) // =======================================================
(PID.TID 0000.0001) %MON obc_N_vVel_max               =   2.5000000000000E-02
(PID.TID 0000.0001) %MON obc_N_vVel_min               =  -2.5000000000000E-02
(PID.TID 0000.0001) %MON obc_N_vVel_mean              =   2.5511584080271E-18
(PID.TID 0000.0001) %MON obc_N_vVel_sd                =   1.4578823256425E-02
(PID.TID 0000.0001) %MON obc_N_vVel_Int               =   3.2287061912939E-11
(PID.TID 0000.0001) // =======================================================
(PID.TID 0000.0001) // End OBCS MONITOR field statistics
(PID.TID 0000.0001) // =======================================================
 Computing Diagnostic #     23  ETAN         Counter:       1   Parms: SM      M1      
 Computing Diagnostic #     79  oceTAUX      Counter:       1   Parms: UU      U1      
           Vector  Mate for  oceTAUX      Diagnostic #     80  oceTAUY  exists 
 Computing Diagnostic #     80  oceTAUY      Counter:       1   Parms: VV      U1      
           Vector  Mate for  oceTAUY      Diagnostic #     79  oceTAUX  exists 
 Computing Diagnostic #     85  oceQnet      Counter:       1   Parms: SM      U1      
 Computing Diagnostic #     83  oceFWflx     Counter:       1   Parms: SM      U1      
 Computing Diagnostic #     76  MXLDEPTH     Counter:       1   Parms: SM      M1      
 Computing Diagnostic #    187  SHIfwFlx     Counter:       1   Parms: SM      L1      
 Computing Diagnostic #    188  SHIhtFlx     Counter:       1   Parms: SM      L1      
 Computing Diagnostic #    193  SHIgammT     Counter:       1   Parms: SM      L1      
 Computing Diagnostic #    194  SHIgammS     Counter:       1   Parms: SM      L1      
 Computing Diagnostic #    196  SHI_mass     Counter:       1   Parms: SM      L1      
 Computing Diagnostic #    195  SHIuStar     Counter:       1   Parms: SM      L1      
 Computing Diagnostic #    197  SHIRshel     Counter:       1   Parms: SM      L1      
 Computing Diagnostic #    198  SHI_MEff     Counter:       1   Parms: SM      L1      
 Computing Diagnostic #     30  UVEL         Counter:       1   Parms: UUR     MR      
           Vector  Mate for  UVEL         Diagnostic #     31  VVEL     exists 
 Computing Diagnostic #     31  VVEL         Counter:       1   Parms: VVR     MR      
           Vector  Mate for  VVEL         Diagnostic #     30  UVEL     exists 
 Computing Diagnostic #     32  WVEL         Counter:       1   Parms: WM      LR      
 Computing Diagnostic #     26  THETA        Counter:       1   Parms: SMR     MR      
 Computing Diagnostic #     27  SALT         Counter:       1   Parms: SMR     MR      
 Computing Diagnostic #     64  RHOAnoma     Counter:       1   Parms: SMR     MR      
 Computing Diagnostic #     78  CONVADJ      Counter:       1   Parms: SMR     LR      
 Computing Diagnostic #    199  SI_Uvel      Counter:       1   Parms: UZ      L1      
 Computing Diagnostic #    200  SI_Vvel      Counter:       1   Parms: VZ      L1      
 Computing Diagnostic #    201  SI_Thick     Counter:       1   Parms: SM      L1      
 Computing Diagnostic #    204  SI_hmask     Counter:       1   Parms: SM      L1      
 Computing Diagnostic #    203  SI_float     Counter:       1   Parms: SM      L1      
(PID.TID 0000.0001) // =======================================================
(PID.TID 0000.0001) // Field Model R_low (ini_masks_etc)
(PID.TID 0000.0001) // CMIN =         -1.299000000000000E+03
(PID.TID 0000.0001) // CMAX =         -1.000000000000000E+03
(PID.TID 0000.0001) // CINT =          1.107407407407407E+01
(PID.TID 0000.0001) // SYMBOLS (CMIN->CMAX): -abcdefghijklmnopqrstuvwxyz+
(PID.TID 0000.0001) //                  0.0: .
(PID.TID 0000.0001) // RANGE I (Lo:Hi:Step):(    -2:     6:     1)
(PID.TID 0000.0001) // RANGE J (Lo:Hi:Step):(   403:    -2:    -1)
(PID.TID 0000.0001) // RANGE K (Lo:Hi:Step):(   1:   1:   1)
(PID.TID 0000.0001) // =======================================================
(PID.TID 0000.0001) K =   1
(PID.TID 0000.0001) //
(PID.TID 0000.0001) // |--J--|210123456
(PID.TID 0000.0001) //    403 ---------
(PID.TID 0000.0001) //    402 ---------
(PID.TID 0000.0001) //    401 .........
(PID.TID 0000.0001) //    400 +++++++++
(PID.TID 0000.0001) //    399 +++++++++
(PID.TID 0000.0001) //    398 +++++++++
(PID.TID 0000.0001) //    397 +++++++++
(PID.TID 0000.0001) //    396 +++++++++
(PID.TID 0000.0001) //    395 +++++++++
(PID.TID 0000.0001) //    394 +++++++++
(PID.TID 0000.0001) //    393 +++++++++
(PID.TID 0000.0001) //    392 +++++++++
(PID.TID 0000.0001) //    391 +++++++++
(PID.TID 0000.0001) //    390 +++++++++
(PID.TID 0000.0001) //    389 +++++++++
(PID.TID 0000.0001) //    388 +++++++++
(PID.TID 0000.0001) //    387 +++++++++
(PID.TID 0000.0001) //    386 +++++++++
(PID.TID 0000.0001) //    385 +++++++++
(PID.TID 0000.0001) //    384 +++++++++
(PID.TID 0000.0001) //    383 +++++++++
(PID.TID 0000.0001) //    382 +++++++++
(PID.TID 0000.0001) //    381 +++++++++
(PID.TID 0000.0001) //    380 +++++++++
(PID.TID 0000.0001) //    379 +++++++++
(PID.TID 0000.0001) //    378 +++++++++
(PID.TID 0000.0001) //    377 +++++++++
(PID.TID 0000.0001) //    376 +++++++++
(PID.TID 0000.0001) //    375 +++++++++
(PID.TID 0000.0001) //    374 +++++++++
(PID.TID 0000.0001) //    373 +++++++++
(PID.TID 0000.0001) //    372 +++++++++
(PID.TID 0000.0001) //    371 +++++++++
(PID.TID 0000.0001) //    370 +++++++++
(PID.TID 0000.0001) //    369 +++++++++
(PID.TID 0000.0001) //    368 +++++++++
(PID.TID 0000.0001) //    367 +++++++++
(PID.TID 0000.0001) //    366 +++++++++
(PID.TID 0000.0001) //    365 +++++++++
(PID.TID 0000.0001) //    364 +++++++++
(PID.TID 0000.0001) //    363 +++++++++
(PID.TID 0000.0001) //    362 +++++++++
(PID.TID 0000.0001) //    361 +++++++++
(PID.TID 0000.0001) //    360 +++++++++
(PID.TID 0000.0001) //    359 +++++++++
(PID.TID 0000.0001) //    358 +++++++++
(PID.TID 0000.0001) //    357 +++++++++
(PID.TID 0000.0001) //    356 +++++++++
(PID.TID 0000.0001) //    355 +++++++++
(PID.TID 0000.0001) //    354 +++++++++
(PID.TID 0000.0001) //    353 +++++++++
(PID.TID 0000.0001) //    352 +++++++++
(PID.TID 0000.0001) //    351 +++++++++
(PID.TID 0000.0001) //    350 +++++++++
(PID.TID 0000.0001) //    349 +++++++++
(PID.TID 0000.0001) //    348 +++++++++
(PID.TID 0000.0001) //    347 +++++++++
(PID.TID 0000.0001) //    346 +++++++++
(PID.TID 0000.0001) //    345 +++++++++
(PID.TID 0000.0001) //    344 +++++++++
(PID.TID 0000.0001) //    343 +++++++++
(PID.TID 0000.0001) //    342 +++++++++
(PID.TID 0000.0001) //    341 +++++++++
(PID.TID 0000.0001) //    340 +++++++++
(PID.TID 0000.0001) //    339 +++++++++
(PID.TID 0000.0001) //    338 +++++++++
(PID.TID 0000.0001) //    337 +++++++++
(PID.TID 0000.0001) //    336 +++++++++
(PID.TID 0000.0001) //    335 +++++++++
(PID.TID 0000.0001) //    334 +++++++++
(PID.TID 0000.0001) //    333 +++++++++
(PID.TID 0000.0001) //    332 +++++++++
(PID.TID 0000.0001) //    331 +++++++++
(PID.TID 0000.0001) //    330 +++++++++
(PID.TID 0000.0001) //    329 +++++++++
(PID.TID 0000.0001) //    328 +++++++++
(PID.TID 0000.0001) //    327 +++++++++
(PID.TID 0000.0001) //    326 +++++++++
(PID.TID 0000.0001) //    325 +++++++++
(PID.TID 0000.0001) //    324 +++++++++
(PID.TID 0000.0001) //    323 +++++++++
(PID.TID 0000.0001) //    322 +++++++++
(PID.TID 0000.0001) //    321 +++++++++
(PID.TID 0000.0001) //    320 +++++++++
(PID.TID 0000.0001) //    319 +++++++++
(PID.TID 0000.0001) //    318 +++++++++
(PID.TID 0000.0001) //    317 +++++++++
(PID.TID 0000.0001) //    316 +++++++++
(PID.TID 0000.0001) //    315 +++++++++
(PID.TID 0000.0001) //    314 +++++++++
(PID.TID 0000.0001) //    313 +++++++++
(PID.TID 0000.0001) //    312 +++++++++
(PID.TID 0000.0001) //    311 +++++++++
(PID.TID 0000.0001) //    310 +++++++++
(PID.TID 0000.0001) //    309 +++++++++
(PID.TID 0000.0001) //    308 +++++++++
(PID.TID 0000.0001) //    307 +++++++++
(PID.TID 0000.0001) //    306 +++++++++
(PID.TID 0000.0001) //    305 +++++++++
(PID.TID 0000.0001) //    304 +++++++++
(PID.TID 0000.0001) //    303 +++++++++
(PID.TID 0000.0001) //    302 +++++++++
(PID.TID 0000.0001) //    301 +++++++++
(PID.TID 0000.0001) //    300 +++++++++
(PID.TID 0000.0001) //    299 +++++++++
(PID.TID 0000.0001) //    298 +++++++++
(PID.TID 0000.0001) //    297 +++++++++
(PID.TID 0000.0001) //    296 +++++++++
(PID.TID 0000.0001) //    295 zzzzzzzzz
(PID.TID 0000.0001) //    294 zzzzzzzzz
(PID.TID 0000.0001) //    293 zzzzzzzzz
(PID.TID 0000.0001) //    292 zzzzzzzzz
(PID.TID 0000.0001) //    291 zzzzzzzzz
(PID.TID 0000.0001) //    290 zzzzzzzzz
(PID.TID 0000.0001) //    289 zzzzzzzzz
(PID.TID 0000.0001) //    288 zzzzzzzzz
(PID.TID 0000.0001) //    287 zzzzzzzzz
(PID.TID 0000.0001) //    286 zzzzzzzzz
(PID.TID 0000.0001) //    285 zzzzzzzzz
(PID.TID 0000.0001) //    284 yyyyyyyyy
(PID.TID 0000.0001) //    283 yyyyyyyyy
(PID.TID 0000.0001) //    282 yyyyyyyyy
(PID.TID 0000.0001) //    281 yyyyyyyyy
(PID.TID 0000.0001) //    280 yyyyyyyyy
(PID.TID 0000.0001) //    279 yyyyyyyyy
(PID.TID 0000.0001) //    278 yyyyyyyyy
(PID.TID 0000.0001) //    277 yyyyyyyyy
(PID.TID 0000.0001) //    276 yyyyyyyyy
(PID.TID 0000.0001) //    275 yyyyyyyyy
(PID.TID 0000.0001) //    274 yyyyyyyyy
(PID.TID 0000.0001) //    273 xxxxxxxxx
(PID.TID 0000.0001) //    272 xxxxxxxxx
(PID.TID 0000.0001) //    271 xxxxxxxxx
(PID.TID 0000.0001) //    270 xxxxxxxxx
(PID.TID 0000.0001) //    269 xxxxxxxxx
(PID.TID 0000.0001) //    268 xxxxxxxxx
(PID.TID 0000.0001) //    267 xxxxxxxxx
(PID.TID 0000.0001) //    266 xxxxxxxxx
(PID.TID 0000.0001) //    265 xxxxxxxxx
(PID.TID 0000.0001) //    264 xxxxxxxxx
(PID.TID 0000.0001) //    263 xxxxxxxxx
(PID.TID 0000.0001) //    262 wwwwwwwww
(PID.TID 0000.0001) //    261 wwwwwwwww
(PID.TID 0000.0001) //    260 wwwwwwwww
(PID.TID 0000.0001) //    259 wwwwwwwww
(PID.TID 0000.0001) //    258 wwwwwwwww
(PID.TID 0000.0001) //    257 wwwwwwwww
(PID.TID 0000.0001) //    256 wwwwwwwww
(PID.TID 0000.0001) //    255 wwwwwwwww
(PID.TID 0000.0001) //    254 wwwwwwwww
(PID.TID 0000.0001) //    253 wwwwwwwww
(PID.TID 0000.0001) //    252 wwwwwwwww
(PID.TID 0000.0001) //    251 vvvvvvvvv
(PID.TID 0000.0001) //    250 vvvvvvvvv
(PID.TID 0000.0001) //    249 vvvvvvvvv
(PID.TID 0000.0001) //    248 vvvvvvvvv
(PID.TID 0000.0001) //    247 vvvvvvvvv
(PID.TID 0000.0001) //    246 vvvvvvvvv
(PID.TID 0000.0001) //    245 vvvvvvvvv
(PID.TID 0000.0001) //    244 vvvvvvvvv
(PID.TID 0000.0001) //    243 vvvvvvvvv
(PID.TID 0000.0001) //    242 vvvvvvvvv
(PID.TID 0000.0001) //    241 vvvvvvvvv
(PID.TID 0000.0001) //    240 uuuuuuuuu
(PID.TID 0000.0001) //    239 uuuuuuuuu
(PID.TID 0000.0001) //    238 uuuuuuuuu
(PID.TID 0000.0001) //    237 uuuuuuuuu
(PID.TID 0000.0001) //    236 uuuuuuuuu
(PID.TID 0000.0001) //    235 uuuuuuuuu
(PID.TID 0000.0001) //    234 uuuuuuuuu
(PID.TID 0000.0001) //    233 uuuuuuuuu
(PID.TID 0000.0001) //    232 uuuuuuuuu
(PID.TID 0000.0001) //    231 uuuuuuuuu
(PID.TID 0000.0001) //    230 ttttttttt
(PID.TID 0000.0001) //    229 ttttttttt
(PID.TID 0000.0001) //    228 ttttttttt
(PID.TID 0000.0001) //    227 ttttttttt
(PID.TID 0000.0001) //    226 ttttttttt
(PID.TID 0000.0001) //    225 ttttttttt
(PID.TID 0000.0001) //    224 ttttttttt
(PID.TID 0000.0001) //    223 ttttttttt
(PID.TID 0000.0001) //    222 ttttttttt
(PID.TID 0000.0001) //    221 ttttttttt
(PID.TID 0000.0001) //    220 ttttttttt
(PID.TID 0000.0001) //    219 ttttttttt
(PID.TID 0000.0001) //    218 ttttttttt
(PID.TID 0000.0001) //    217 sssssssss
(PID.TID 0000.0001) //    216 sssssssss
(PID.TID 0000.0001) //    215 sssssssss
(PID.TID 0000.0001) //    214 sssssssss
(PID.TID 0000.0001) //    213 sssssssss
(PID.TID 0000.0001) //    212 sssssssss
(PID.TID 0000.0001) //    211 sssssssss
(PID.TID 0000.0001) //    210 sssssssss
(PID.TID 0000.0001) //    209 sssssssss
(PID.TID 0000.0001) //    208 sssssssss
(PID.TID 0000.0001) //    207 sssssssss
(PID.TID 0000.0001) //    206 rrrrrrrrr
(PID.TID 0000.0001) //    205 rrrrrrrrr
(PID.TID 0000.0001) //    204 rrrrrrrrr
(PID.TID 0000.0001) //    203 rrrrrrrrr
(PID.TID 0000.0001) //    202 rrrrrrrrr
(PID.TID 0000.0001) //    201 rrrrrrrrr
(PID.TID 0000.0001) //    200 rrrrrrrrr
(PID.TID 0000.0001) //    199 rrrrrrrrr
(PID.TID 0000.0001) //    198 rrrrrrrrr
(PID.TID 0000.0001) //    197 rrrrrrrrr
(PID.TID 0000.0001) //    196 rrrrrrrrr
(PID.TID 0000.0001) //    195 qqqqqqqqq
(PID.TID 0000.0001) //    194 qqqqqqqqq
(PID.TID 0000.0001) //    193 qqqqqqqqq
(PID.TID 0000.0001) //    192 qqqqqqqqq
(PID.TID 0000.0001) //    191 qqqqqqqqq
(PID.TID 0000.0001) //    190 qqqqqqqqq
(PID.TID 0000.0001) //    189 qqqqqqqqq
(PID.TID 0000.0001) //    188 qqqqqqqqq
(PID.TID 0000.0001) //    187 qqqqqqqqq
(PID.TID 0000.0001) //    186 qqqqqqqqq
(PID.TID 0000.0001) //    185 qqqqqqqqq
(PID.TID 0000.0001) //    184 ppppppppp
(PID.TID 0000.0001) //    183 ppppppppp
(PID.TID 0000.0001) //    182 ppppppppp
(PID.TID 0000.0001) //    181 ppppppppp
(PID.TID 0000.0001) //    180 ppppppppp
(PID.TID 0000.0001) //    179 ppppppppp
(PID.TID 0000.0001) //    178 ppppppppp
(PID.TID 0000.0001) //    177 ppppppppp
(PID.TID 0000.0001) //    176 ppppppppp
(PID.TID 0000.0001) //    175 ppppppppp
(PID.TID 0000.0001) //    174 ppppppppp
(PID.TID 0000.0001) //    173 ooooooooo
(PID.TID 0000.0001) //    172 ooooooooo
(PID.TID 0000.0001) //    171 ooooooooo
(PID.TID 0000.0001) //    170 ooooooooo
(PID.TID 0000.0001) //    169 ooooooooo
(PID.TID 0000.0001) //    168 ooooooooo
(PID.TID 0000.0001) //    167 ooooooooo
(PID.TID 0000.0001) //    166 ooooooooo
(PID.TID 0000.0001) //    165 ooooooooo
(PID.TID 0000.0001) //    164 ooooooooo
(PID.TID 0000.0001) //    163 ooooooooo
(PID.TID 0000.0001) //    162 nnnnnnnnn
(PID.TID 0000.0001) //    161 nnnnnnnnn
(PID.TID 0000.0001) //    160 nnnnnnnnn
(PID.TID 0000.0001) //    159 nnnnnnnnn
(PID.TID 0000.0001) //    158 nnnnnnnnn
(PID.TID 0000.0001) //    157 nnnnnnnnn
(PID.TID 0000.0001) //    156 nnnnnnnnn
(PID.TID 0000.0001) //    155 nnnnnnnnn
(PID.TID 0000.0001) //    154 nnnnnnnnn
(PID.TID 0000.0001) //    153 nnnnnnnnn
(PID.TID 0000.0001) //    152 nnnnnnnnn
(PID.TID 0000.0001) //    151 mmmmmmmmm
(PID.TID 0000.0001) //    150 mmmmmmmmm
(PID.TID 0000.0001) //    149 mmmmmmmmm
(PID.TID 0000.0001) //    148 mmmmmmmmm
(PID.TID 0000.0001) //    147 mmmmmmmmm
(PID.TID 0000.0001) //    146 mmmmmmmmm
(PID.TID 0000.0001) //    145 mmmmmmmmm
(PID.TID 0000.0001) //    144 mmmmmmmmm
(PID.TID 0000.0001) //    143 mmmmmmmmm
(PID.TID 0000.0001) //    142 mmmmmmmmm
(PID.TID 0000.0001) //    141 mmmmmmmmm
(PID.TID 0000.0001) //    140 lllllllll
(PID.TID 0000.0001) //    139 lllllllll
(PID.TID 0000.0001) //    138 lllllllll
(PID.TID 0000.0001) //    137 lllllllll
(PID.TID 0000.0001) //    136 lllllllll
(PID.TID 0000.0001) //    135 lllllllll
(PID.TID 0000.0001) //    134 lllllllll
(PID.TID 0000.0001) //    133 lllllllll
(PID.TID 0000.0001) //    132 lllllllll
(PID.TID 0000.0001) //    131 lllllllll
(PID.TID 0000.0001) //    130 kkkkkkkkk
(PID.TID 0000.0001) //    129 kkkkkkkkk
(PID.TID 0000.0001) //    128 kkkkkkkkk
(PID.TID 0000.0001) //    127 kkkkkkkkk
(PID.TID 0000.0001) //    126 kkkkkkkkk
(PID.TID 0000.0001) //    125 kkkkkkkkk
(PID.TID 0000.0001) //    124 kkkkkkkkk
(PID.TID 0000.0001) //    123 kkkkkkkkk
(PID.TID 0000.0001) //    122 kkkkkkkkk
(PID.TID 0000.0001) //    121 kkkkkkkkk
(PID.TID 0000.0001) //    120 kkkkkkkkk
(PID.TID 0000.0001) //    119 kkkkkkkkk
(PID.TID 0000.0001) //    118 jjjjjjjjj
(PID.TID 0000.0001) //    117 jjjjjjjjj
(PID.TID 0000.0001) //    116 jjjjjjjjj
(PID.TID 0000.0001) //    115 jjjjjjjjj
(PID.TID 0000.0001) //    114 jjjjjjjjj
(PID.TID 0000.0001) //    113 jjjjjjjjj
(PID.TID 0000.0001) //    112 jjjjjjjjj
(PID.TID 0000.0001) //    111 jjjjjjjjj
(PID.TID 0000.0001) //    110 jjjjjjjjj
(PID.TID 0000.0001) //    109 jjjjjjjjj
(PID.TID 0000.0001) //    108 jjjjjjjjj
(PID.TID 0000.0001) //    107 iiiiiiiii
(PID.TID 0000.0001) //    106 iiiiiiiii
(PID.TID 0000.0001) //    105 iiiiiiiii
(PID.TID 0000.0001) //    104 iiiiiiiii
(PID.TID 0000.0001) //    103 iiiiiiiii
(PID.TID 0000.0001) //    102 iiiiiiiii
(PID.TID 0000.0001) //    101 iiiiiiiii
(PID.TID 0000.0001) //    100 iiiiiiiii
(PID.TID 0000.0001) //     99 iiiiiiiii
(PID.TID 0000.0001) //     98 iiiiiiiii
(PID.TID 0000.0001) //     97 iiiiiiiii
(PID.TID 0000.0001) //     96 hhhhhhhhh
(PID.TID 0000.0001) //     95 hhhhhhhhh
(PID.TID 0000.0001) //     94 hhhhhhhhh
(PID.TID 0000.0001) //     93 hhhhhhhhh
(PID.TID 0000.0001) //     92 hhhhhhhhh
(PID.TID 0000.0001) //     91 hhhhhhhhh
(PID.TID 0000.0001) //     90 hhhhhhhhh
(PID.TID 0000.0001) //     89 hhhhhhhhh
(PID.TID 0000.0001) //     88 hhhhhhhhh
(PID.TID 0000.0001) //     87 hhhhhhhhh
(PID.TID 0000.0001) //     86 hhhhhhhhh
(PID.TID 0000.0001) //     85 ggggggggg
(PID.TID 0000.0001) //     84 ggggggggg
(PID.TID 0000.0001) //     83 ggggggggg
(PID.TID 0000.0001) //     82 ggggggggg
(PID.TID 0000.0001) //     81 ggggggggg
(PID.TID 0000.0001) //     80 ggggggggg
(PID.TID 0000.0001) //     79 ggggggggg
(PID.TID 0000.0001) //     78 ggggggggg
(PID.TID 0000.0001) //     77 ggggggggg
(PID.TID 0000.0001) //     76 ggggggggg
(PID.TID 0000.0001) //     75 ggggggggg
(PID.TID 0000.0001) //     74 ggggggggg
(PID.TID 0000.0001) //     73 fffffffff
(PID.TID 0000.0001) //     72 fffffffff
(PID.TID 0000.0001) //     71 fffffffff
(PID.TID 0000.0001) //     70 fffffffff
(PID.TID 0000.0001) //     69 fffffffff
(PID.TID 0000.0001) //     68 fffffffff
(PID.TID 0000.0001) //     67 fffffffff
(PID.TID 0000.0001) //     66 fffffffff
(PID.TID 0000.0001) //     65 fffffffff
(PID.TID 0000.0001) //     64 fffffffff
(PID.TID 0000.0001) //     63 fffffffff
(PID.TID 0000.0001) //     62 eeeeeeeee
(PID.TID 0000.0001) //     61 eeeeeeeee
(PID.TID 0000.0001) //     60 eeeeeeeee
(PID.TID 0000.0001) //     59 eeeeeeeee
(PID.TID 0000.0001) //     58 eeeeeeeee
(PID.TID 0000.0001) //     57 eeeeeeeee
(PID.TID 0000.0001) //     56 eeeeeeeee
(PID.TID 0000.0001) //     55 eeeeeeeee
(PID.TID 0000.0001) //     54 eeeeeeeee
(PID.TID 0000.0001) //     53 eeeeeeeee
(PID.TID 0000.0001) //     52 eeeeeeeee
(PID.TID 0000.0001) //     51 ddddddddd
(PID.TID 0000.0001) //     50 ddddddddd
(PID.TID 0000.0001) //     49 ddddddddd
(PID.TID 0000.0001) //     48 ddddddddd
(PID.TID 0000.0001) //     47 ddddddddd
(PID.TID 0000.0001) //     46 ddddddddd
(PID.TID 0000.0001) //     45 ddddddddd
(PID.TID 0000.0001) //     44 ddddddddd
(PID.TID 0000.0001) //     43 ddddddddd
(PID.TID 0000.0001) //     42 ddddddddd
(PID.TID 0000.0001) //     41 ddddddddd
(PID.TID 0000.0001) //     40 ccccccccc
(PID.TID 0000.0001) //     39 ccccccccc
(PID.TID 0000.0001) //     38 ccccccccc
(PID.TID 0000.0001) //     37 ccccccccc
(PID.TID 0000.0001) //     36 ccccccccc
(PID.TID 0000.0001) //     35 ccccccccc
(PID.TID 0000.0001) //     34 ccccccccc
(PID.TID 0000.0001) //     33 ccccccccc
(PID.TID 0000.0001) //     32 ccccccccc
(PID.TID 0000.0001) //     31 ccccccccc
(PID.TID 0000.0001) //     30 bbbbbbbbb
(PID.TID 0000.0001) //     29 bbbbbbbbb
(PID.TID 0000.0001) //     28 bbbbbbbbb
(PID.TID 0000.0001) //     27 bbbbbbbbb
(PID.TID 0000.0001) //     26 bbbbbbbbb
(PID.TID 0000.0001) //     25 bbbbbbbbb
(PID.TID 0000.0001) //     24 bbbbbbbbb
(PID.TID 0000.0001) //     23 bbbbbbbbb
(PID.TID 0000.0001) //     22 bbbbbbbbb
(PID.TID 0000.0001) //     21 bbbbbbbbb
(PID.TID 0000.0001) //     20 bbbbbbbbb
(PID.TID 0000.0001) //     19 bbbbbbbbb
(PID.TID 0000.0001) //     18 aaaaaaaaa
(PID.TID 0000.0001) //     17 aaaaaaaaa
(PID.TID 0000.0001) //     16 aaaaaaaaa
(PID.TID 0000.0001) //     15 aaaaaaaaa
(PID.TID 0000.0001) //     14 aaaaaaaaa
(PID.TID 0000.0001) //     13 aaaaaaaaa
(PID.TID 0000.0001) //     12 aaaaaaaaa
(PID.TID 0000.0001) //     11 aaaaaaaaa
(PID.TID 0000.0001) //     10 aaaaaaaaa
(PID.TID 0000.0001) //      9 aaaaaaaaa
(PID.TID 0000.0001) //      8 aaaaaaaaa
(PID.TID 0000.0001) //      7 ---------
(PID.TID 0000.0001) //      6 ---------
(PID.TID 0000.0001) //      5 ---------
(PID.TID 0000.0001) //      4 ---------
(PID.TID 0000.0001) //      3 ---------
(PID.TID 0000.0001) //      2 ---------
(PID.TID 0000.0001) //      1 .........
(PID.TID 0000.0001) //      0 +++++++++
(PID.TID 0000.0001) //     -1 +++++++++
(PID.TID 0000.0001) //     -2 +++++++++
(PID.TID 0000.0001) // =======================================================
(PID.TID 0000.0001) // END OF FIELD                                          =
(PID.TID 0000.0001) // =======================================================
(PID.TID 0000.0001) 
(PID.TID 0000.0001) // =======================================================
(PID.TID 0000.0001) // Field Model Ro_surf (ini_masks_etc)
(PID.TID 0000.0001) // CMIN =         -1.290000000000000E+03
(PID.TID 0000.0001) // CMAX =         -4.600000000000000E+02
(PID.TID 0000.0001) // CINT =          3.074074074074074E+01
(PID.TID 0000.0001) // SYMBOLS (CMIN->CMAX): -abcdefghijklmnopqrstuvwxyz+
(PID.TID 0000.0001) //                  0.0: .
(PID.TID 0000.0001) // RANGE I (Lo:Hi:Step):(    -2:     6:     1)
(PID.TID 0000.0001) // RANGE J (Lo:Hi:Step):(   403:    -2:    -1)
(PID.TID 0000.0001) // RANGE K (Lo:Hi:Step):(   1:   1:   1)
(PID.TID 0000.0001) // =======================================================
(PID.TID 0000.0001) K =   1
(PID.TID 0000.0001) //
(PID.TID 0000.0001) // |--J--|210123456
(PID.TID 0000.0001) //    403 ---------
(PID.TID 0000.0001) //    402 ---------
(PID.TID 0000.0001) //    401 .........
(PID.TID 0000.0001) //    400 .........
(PID.TID 0000.0001) //    399 .........
(PID.TID 0000.0001) //    398 .........
(PID.TID 0000.0001) //    397 .........
(PID.TID 0000.0001) //    396 .........
(PID.TID 0000.0001) //    395 .........
(PID.TID 0000.0001) //    394 .........
(PID.TID 0000.0001) //    393 .........
(PID.TID 0000.0001) //    392 .........
(PID.TID 0000.0001) //    391 .........
(PID.TID 0000.0001) //    390 .........
(PID.TID 0000.0001) //    389 .........
(PID.TID 0000.0001) //    388 .........
(PID.TID 0000.0001) //    387 .........
(PID.TID 0000.0001) //    386 .........
(PID.TID 0000.0001) //    385 .........
(PID.TID 0000.0001) //    384 .........
(PID.TID 0000.0001) //    383 .........
(PID.TID 0000.0001) //    382 .........
(PID.TID 0000.0001) //    381 .........
(PID.TID 0000.0001) //    380 .........
(PID.TID 0000.0001) //    379 .........
(PID.TID 0000.0001) //    378 .........
(PID.TID 0000.0001) //    377 .........
(PID.TID 0000.0001) //    376 .........
(PID.TID 0000.0001) //    375 .........
(PID.TID 0000.0001) //    374 .........
(PID.TID 0000.0001) //    373 .........
(PID.TID 0000.0001) //    372 .........
(PID.TID 0000.0001) //    371 .........
(PID.TID 0000.0001) //    370 .........
(PID.TID 0000.0001) //    369 .........
(PID.TID 0000.0001) //    368 .........
(PID.TID 0000.0001) //    367 .........
(PID.TID 0000.0001) //    366 .........
(PID.TID 0000.0001) //    365 .........
(PID.TID 0000.0001) //    364 .........
(PID.TID 0000.0001) //    363 .........
(PID.TID 0000.0001) //    362 .........
(PID.TID 0000.0001) //    361 .........
(PID.TID 0000.0001) //    360 .........
(PID.TID 0000.0001) //    359 .........
(PID.TID 0000.0001) //    358 .........
(PID.TID 0000.0001) //    357 .........
(PID.TID 0000.0001) //    356 .........
(PID.TID 0000.0001) //    355 .........
(PID.TID 0000.0001) //    354 .........
(PID.TID 0000.0001) //    353 .........
(PID.TID 0000.0001) //    352 .........
(PID.TID 0000.0001) //    351 .........
(PID.TID 0000.0001) //    350 .........
(PID.TID 0000.0001) //    349 .........
(PID.TID 0000.0001) //    348 .........
(PID.TID 0000.0001) //    347 .........
(PID.TID 0000.0001) //    346 .........
(PID.TID 0000.0001) //    345 .........
(PID.TID 0000.0001) //    344 .........
(PID.TID 0000.0001) //    343 .........
(PID.TID 0000.0001) //    342 .........
(PID.TID 0000.0001) //    341 .........
(PID.TID 0000.0001) //    340 .........
(PID.TID 0000.0001) //    339 .........
(PID.TID 0000.0001) //    338 .........
(PID.TID 0000.0001) //    337 .........
(PID.TID 0000.0001) //    336 .........
(PID.TID 0000.0001) //    335 .........
(PID.TID 0000.0001) //    334 .........
(PID.TID 0000.0001) //    333 .........
(PID.TID 0000.0001) //    332 .........
(PID.TID 0000.0001) //    331 .........
(PID.TID 0000.0001) //    330 .........
(PID.TID 0000.0001) //    329 .........
(PID.TID 0000.0001) //    328 .........
(PID.TID 0000.0001) //    327 .........
(PID.TID 0000.0001) //    326 .........
(PID.TID 0000.0001) //    325 .........
(PID.TID 0000.0001) //    324 .........
(PID.TID 0000.0001) //    323 .........
(PID.TID 0000.0001) //    322 .........
(PID.TID 0000.0001) //    321 .........
(PID.TID 0000.0001) //    320 .........
(PID.TID 0000.0001) //    319 .........
(PID.TID 0000.0001) //    318 .........
(PID.TID 0000.0001) //    317 .........
(PID.TID 0000.0001) //    316 .........
(PID.TID 0000.0001) //    315 .........
(PID.TID 0000.0001) //    314 .........
(PID.TID 0000.0001) //    313 .........
(PID.TID 0000.0001) //    312 .........
(PID.TID 0000.0001) //    311 .........
(PID.TID 0000.0001) //    310 .........
(PID.TID 0000.0001) //    309 .........
(PID.TID 0000.0001) //    308 .........
(PID.TID 0000.0001) //    307 .........
(PID.TID 0000.0001) //    306 .........
(PID.TID 0000.0001) //    305 .........
(PID.TID 0000.0001) //    304 .........
(PID.TID 0000.0001) //    303 .........
(PID.TID 0000.0001) //    302 .........
(PID.TID 0000.0001) //    301 .........
(PID.TID 0000.0001) //    300 +++++++++
(PID.TID 0000.0001) //    299 +++++++++
(PID.TID 0000.0001) //    298 zzzzzzzzz
(PID.TID 0000.0001) //    297 zzzzzzzzz
(PID.TID 0000.0001) //    296 zzzzzzzzz
(PID.TID 0000.0001) //    295 zzzzzzzzz
(PID.TID 0000.0001) //    294 yyyyyyyyy
(PID.TID 0000.0001) //    293 yyyyyyyyy
(PID.TID 0000.0001) //    292 yyyyyyyyy
(PID.TID 0000.0001) //    291 yyyyyyyyy
(PID.TID 0000.0001) //    290 xxxxxxxxx
(PID.TID 0000.0001) //    289 xxxxxxxxx
(PID.TID 0000.0001) //    288 xxxxxxxxx
(PID.TID 0000.0001) //    287 xxxxxxxxx
(PID.TID 0000.0001) //    286 wwwwwwwww
(PID.TID 0000.0001) //    285 wwwwwwwww
(PID.TID 0000.0001) //    284 wwwwwwwww
(PID.TID 0000.0001) //    283 wwwwwwwww
(PID.TID 0000.0001) //    282 vvvvvvvvv
(PID.TID 0000.0001) //    281 vvvvvvvvv
(PID.TID 0000.0001) //    280 vvvvvvvvv
(PID.TID 0000.0001) //    279 vvvvvvvvv
(PID.TID 0000.0001) //    278 uuuuuuuuu
(PID.TID 0000.0001) //    277 uuuuuuuuu
(PID.TID 0000.0001) //    276 uuuuuuuuu
(PID.TID 0000.0001) //    275 uuuuuuuuu
(PID.TID 0000.0001) //    274 ttttttttt
(PID.TID 0000.0001) //    273 ttttttttt
(PID.TID 0000.0001) //    272 ttttttttt
(PID.TID 0000.0001) //    271 ttttttttt
(PID.TID 0000.0001) //    270 ttttttttt
(PID.TID 0000.0001) //    269 ttttttttt
(PID.TID 0000.0001) //    268 sssssssss
(PID.TID 0000.0001) //    267 sssssssss
(PID.TID 0000.0001) //    266 sssssssss
(PID.TID 0000.0001) //    265 sssssssss
(PID.TID 0000.0001) //    264 sssssssss
(PID.TID 0000.0001) //    263 rrrrrrrrr
(PID.TID 0000.0001) //    262 rrrrrrrrr
(PID.TID 0000.0001) //    261 rrrrrrrrr
(PID.TID 0000.0001) //    260 rrrrrrrrr
(PID.TID 0000.0001) //    259 qqqqqqqqq
(PID.TID 0000.0001) //    258 qqqqqqqqq
(PID.TID 0000.0001) //    257 qqqqqqqqq
(PID.TID 0000.0001) //    256 qqqqqqqqq
(PID.TID 0000.0001) //    255 qqqqqqqqq
(PID.TID 0000.0001) //    254 ppppppppp
(PID.TID 0000.0001) //    253 ppppppppp
(PID.TID 0000.0001) //    252 ppppppppp
(PID.TID 0000.0001) //    251 ppppppppp
(PID.TID 0000.0001) //    250 ooooooooo
(PID.TID 0000.0001) //    249 ooooooooo
(PID.TID 0000.0001) //    248 ooooooooo
(PID.TID 0000.0001) //    247 ooooooooo
(PID.TID 0000.0001) //    246 ooooooooo
(PID.TID 0000.0001) //    245 nnnnnnnnn
(PID.TID 0000.0001) //    244 nnnnnnnnn
(PID.TID 0000.0001) //    243 nnnnnnnnn
(PID.TID 0000.0001) //    242 nnnnnnnnn
(PID.TID 0000.0001) //    241 nnnnnnnnn
(PID.TID 0000.0001) //    240 mmmmmmmmm
(PID.TID 0000.0001) //    239 mmmmmmmmm
(PID.TID 0000.0001) //    238 mmmmmmmmm
(PID.TID 0000.0001) //    237 mmmmmmmmm
(PID.TID 0000.0001) //    236 lllllllll
(PID.TID 0000.0001) //    235 lllllllll
(PID.TID 0000.0001) //    234 lllllllll
(PID.TID 0000.0001) //    233 lllllllll
(PID.TID 0000.0001) //    232 lllllllll
(PID.TID 0000.0001) //    231 kkkkkkkkk
(PID.TID 0000.0001) //    230 kkkkkkkkk
(PID.TID 0000.0001) //    229 kkkkkkkkk
(PID.TID 0000.0001) //    228 kkkkkkkkk
(PID.TID 0000.0001) //    227 kkkkkkkkk
(PID.TID 0000.0001) //    226 jjjjjjjjj
(PID.TID 0000.0001) //    225 jjjjjjjjj
(PID.TID 0000.0001) //    224 jjjjjjjjj
(PID.TID 0000.0001) //    223 jjjjjjjjj
(PID.TID 0000.0001) //    222 jjjjjjjjj
(PID.TID 0000.0001) //    221 iiiiiiiii
(PID.TID 0000.0001) //    220 iiiiiiiii
(PID.TID 0000.0001) //    219 iiiiiiiii
(PID.TID 0000.0001) //    218 iiiiiiiii
(PID.TID 0000.0001) //    217 iiiiiiiii
(PID.TID 0000.0001) //    216 iiiiiiiii
(PID.TID 0000.0001) //    215 hhhhhhhhh
(PID.TID 0000.0001) //    214 hhhhhhhhh
(PID.TID 0000.0001) //    213 hhhhhhhhh
(PID.TID 0000.0001) //    212 hhhhhhhhh
(PID.TID 0000.0001) //    211 hhhhhhhhh
(PID.TID 0000.0001) //    210 hhhhhhhhh
(PID.TID 0000.0001) //    209 ggggggggg
(PID.TID 0000.0001) //    208 ggggggggg
(PID.TID 0000.0001) //    207 ggggggggg
(PID.TID 0000.0001) //    206 ggggggggg
(PID.TID 0000.0001) //    205 ggggggggg
(PID.TID 0000.0001) //    204 ggggggggg
(PID.TID 0000.0001) //    203 ggggggggg
(PID.TID 0000.0001) //    202 ggggggggg
(PID.TID 0000.0001) //    201 ggggggggg
(PID.TID 0000.0001) //    200 ggggggggg
(PID.TID 0000.0001) //    199 ggggggggg
(PID.TID 0000.0001) //    198 fffffffff
(PID.TID 0000.0001) //    197 fffffffff
(PID.TID 0000.0001) //    196 fffffffff
(PID.TID 0000.0001) //    195 fffffffff
(PID.TID 0000.0001) //    194 fffffffff
(PID.TID 0000.0001) //    193 fffffffff
(PID.TID 0000.0001) //    192 fffffffff
(PID.TID 0000.0001) //    191 fffffffff
(PID.TID 0000.0001) //    190 fffffffff
(PID.TID 0000.0001) //    189 fffffffff
(PID.TID 0000.0001) //    188 fffffffff
(PID.TID 0000.0001) //    187 fffffffff
(PID.TID 0000.0001) //    186 fffffffff
(PID.TID 0000.0001) //    185 fffffffff
(PID.TID 0000.0001) //    184 fffffffff
(PID.TID 0000.0001) //    183 fffffffff
(PID.TID 0000.0001) //    182 fffffffff
(PID.TID 0000.0001) //    181 fffffffff
(PID.TID 0000.0001) //    180 fffffffff
(PID.TID 0000.0001) //    179 fffffffff
(PID.TID 0000.0001) //    178 fffffffff
(PID.TID 0000.0001) //    177 fffffffff
(PID.TID 0000.0001) //    176 fffffffff
(PID.TID 0000.0001) //    175 fffffffff
(PID.TID 0000.0001) //    174 fffffffff
(PID.TID 0000.0001) //    173 fffffffff
(PID.TID 0000.0001) //    172 fffffffff
(PID.TID 0000.0001) //    171 fffffffff
(PID.TID 0000.0001) //    170 eeeeeeeee
(PID.TID 0000.0001) //    169 eeeeeeeee
(PID.TID 0000.0001) //    168 eeeeeeeee
(PID.TID 0000.0001) //    167 eeeeeeeee
(PID.TID 0000.0001) //    166 eeeeeeeee
(PID.TID 0000.0001) //    165 eeeeeeeee
(PID.TID 0000.0001) //    164 eeeeeeeee
(PID.TID 0000.0001) //    163 eeeeeeeee
(PID.TID 0000.0001) //    162 eeeeeeeee
(PID.TID 0000.0001) //    161 eeeeeeeee
(PID.TID 0000.0001) //    160 eeeeeeeee
(PID.TID 0000.0001) //    159 eeeeeeeee
(PID.TID 0000.0001) //    158 eeeeeeeee
(PID.TID 0000.0001) //    157 eeeeeeeee
(PID.TID 0000.0001) //    156 eeeeeeeee
(PID.TID 0000.0001) //    155 eeeeeeeee
(PID.TID 0000.0001) //    154 eeeeeeeee
(PID.TID 0000.0001) //    153 eeeeeeeee
(PID.TID 0000.0001) //    152 eeeeeeeee
(PID.TID 0000.0001) //    151 eeeeeeeee
(PID.TID 0000.0001) //    150 eeeeeeeee
(PID.TID 0000.0001) //    149 eeeeeeeee
(PID.TID 0000.0001) //    148 eeeeeeeee
(PID.TID 0000.0001) //    147 eeeeeeeee
(PID.TID 0000.0001) //    146 eeeeeeeee
(PID.TID 0000.0001) //    145 eeeeeeeee
(PID.TID 0000.0001) //    144 eeeeeeeee
(PID.TID 0000.0001) //    143 eeeeeeeee
(PID.TID 0000.0001) //    142 eeeeeeeee
(PID.TID 0000.0001) //    141 eeeeeeeee
(PID.TID 0000.0001) //    140 ddddddddd
(PID.TID 0000.0001) //    139 ddddddddd
(PID.TID 0000.0001) //    138 ddddddddd
(PID.TID 0000.0001) //    137 ddddddddd
(PID.TID 0000.0001) //    136 ddddddddd
(PID.TID 0000.0001) //    135 ddddddddd
(PID.TID 0000.0001) //    134 ddddddddd
(PID.TID 0000.0001) //    133 ddddddddd
(PID.TID 0000.0001) //    132 ddddddddd
(PID.TID 0000.0001) //    131 ddddddddd
(PID.TID 0000.0001) //    130 ddddddddd
(PID.TID 0000.0001) //    129 ddddddddd
(PID.TID 0000.0001) //    128 ddddddddd
(PID.TID 0000.0001) //    127 ddddddddd
(PID.TID 0000.0001) //    126 ddddddddd
(PID.TID 0000.0001) //    125 ddddddddd
(PID.TID 0000.0001) //    124 ddddddddd
(PID.TID 0000.0001) //    123 ddddddddd
(PID.TID 0000.0001) //    122 ddddddddd
(PID.TID 0000.0001) //    121 ddddddddd
(PID.TID 0000.0001) //    120 ddddddddd
(PID.TID 0000.0001) //    119 ddddddddd
(PID.TID 0000.0001) //    118 ddddddddd
(PID.TID 0000.0001) //    117 ddddddddd
(PID.TID 0000.0001) //    116 ddddddddd
(PID.TID 0000.0001) //    115 ddddddddd
(PID.TID 0000.0001) //    114 ddddddddd
(PID.TID 0000.0001) //    113 ddddddddd
(PID.TID 0000.0001) //    112 ddddddddd
(PID.TID 0000.0001) //    111 ddddddddd
(PID.TID 0000.0001) //    110 ccccccccc
(PID.TID 0000.0001) //    109 ccccccccc
(PID.TID 0000.0001) //    108 ccccccccc
(PID.TID 0000.0001) //    107 ccccccccc
(PID.TID 0000.0001) //    106 ccccccccc
(PID.TID 0000.0001) //    105 ccccccccc
(PID.TID 0000.0001) //    104 ccccccccc
(PID.TID 0000.0001) //    103 ccccccccc
(PID.TID 0000.0001) //    102 ccccccccc
(PID.TID 0000.0001) //    101 ccccccccc
(PID.TID 0000.0001) //    100 ccccccccc
(PID.TID 0000.0001) //     99 ccccccccc
(PID.TID 0000.0001) //     98 ccccccccc
(PID.TID 0000.0001) //     97 ccccccccc
(PID.TID 0000.0001) //     96 ccccccccc
(PID.TID 0000.0001) //     95 ccccccccc
(PID.TID 0000.0001) //     94 ccccccccc
(PID.TID 0000.0001) //     93 ccccccccc
(PID.TID 0000.0001) //     92 ccccccccc
(PID.TID 0000.0001) //     91 ccccccccc
(PID.TID 0000.0001) //     90 ccccccccc
(PID.TID 0000.0001) //     89 ccccccccc
(PID.TID 0000.0001) //     88 ccccccccc
(PID.TID 0000.0001) //     87 ccccccccc
(PID.TID 0000.0001) //     86 ccccccccc
(PID.TID 0000.0001) //     85 ccccccccc
(PID.TID 0000.0001) //     84 ccccccccc
(PID.TID 0000.0001) //     83 ccccccccc
(PID.TID 0000.0001) //     82 ccccccccc
(PID.TID 0000.0001) //     81 ccccccccc
(PID.TID 0000.0001) //     80 bbbbbbbbb
(PID.TID 0000.0001) //     79 bbbbbbbbb
(PID.TID 0000.0001) //     78 bbbbbbbbb
(PID.TID 0000.0001) //     77 bbbbbbbbb
(PID.TID 0000.0001) //     76 bbbbbbbbb
(PID.TID 0000.0001) //     75 bbbbbbbbb
(PID.TID 0000.0001) //     74 bbbbbbbbb
(PID.TID 0000.0001) //     73 bbbbbbbbb
(PID.TID 0000.0001) //     72 bbbbbbbbb
(PID.TID 0000.0001) //     71 bbbbbbbbb
(PID.TID 0000.0001) //     70 bbbbbbbbb
(PID.TID 0000.0001) //     69 bbbbbbbbb
(PID.TID 0000.0001) //     68 bbbbbbbbb
(PID.TID 0000.0001) //     67 bbbbbbbbb
(PID.TID 0000.0001) //     66 bbbbbbbbb
(PID.TID 0000.0001) //     65 bbbbbbbbb
(PID.TID 0000.0001) //     64 bbbbbbbbb
(PID.TID 0000.0001) //     63 bbbbbbbbb
(PID.TID 0000.0001) //     62 bbbbbbbbb
(PID.TID 0000.0001) //     61 bbbbbbbbb
(PID.TID 0000.0001) //     60 bbbbbbbbb
(PID.TID 0000.0001) //     59 bbbbbbbbb
(PID.TID 0000.0001) //     58 bbbbbbbbb
(PID.TID 0000.0001) //     57 bbbbbbbbb
(PID.TID 0000.0001) //     56 bbbbbbbbb
(PID.TID 0000.0001) //     55 bbbbbbbbb
(PID.TID 0000.0001) //     54 bbbbbbbbb
(PID.TID 0000.0001) //     53 bbbbbbbbb
(PID.TID 0000.0001) //     52 bbbbbbbbb
(PID.TID 0000.0001) //     51 bbbbbbbbb
(PID.TID 0000.0001) //     50 aaaaaaaaa
(PID.TID 0000.0001) //     49 aaaaaaaaa
(PID.TID 0000.0001) //     48 aaaaaaaaa
(PID.TID 0000.0001) //     47 aaaaaaaaa
(PID.TID 0000.0001) //     46 aaaaaaaaa
(PID.TID 0000.0001) //     45 aaaaaaaaa
(PID.TID 0000.0001) //     44 aaaaaaaaa
(PID.TID 0000.0001) //     43 aaaaaaaaa
(PID.TID 0000.0001) //     42 aaaaaaaaa
(PID.TID 0000.0001) //     41 aaaaaaaaa
(PID.TID 0000.0001) //     40 aaaaaaaaa
(PID.TID 0000.0001) //     39 aaaaaaaaa
(PID.TID 0000.0001) //     38 aaaaaaaaa
(PID.TID 0000.0001) //     37 aaaaaaaaa
(PID.TID 0000.0001) //     36 aaaaaaaaa
(PID.TID 0000.0001) //     35 aaaaaaaaa
(PID.TID 0000.0001) //     34 aaaaaaaaa
(PID.TID 0000.0001) //     33 aaaaaaaaa
(PID.TID 0000.0001) //     32 aaaaaaaaa
(PID.TID 0000.0001) //     31 aaaaaaaaa
(PID.TID 0000.0001) //     30 aaaaaaaaa
(PID.TID 0000.0001) //     29 aaaaaaaaa
(PID.TID 0000.0001) //     28 aaaaaaaaa
(PID.TID 0000.0001) //     27 aaaaaaaaa
(PID.TID 0000.0001) //     26 aaaaaaaaa
(PID.TID 0000.0001) //     25 aaaaaaaaa
(PID.TID 0000.0001) //     24 aaaaaaaaa
(PID.TID 0000.0001) //     23 aaaaaaaaa
(PID.TID 0000.0001) //     22 aaaaaaaaa
(PID.TID 0000.0001) //     21 aaaaaaaaa
(PID.TID 0000.0001) //     20 ---------
(PID.TID 0000.0001) //     19 ---------
(PID.TID 0000.0001) //     18 ---------
(PID.TID 0000.0001) //     17 ---------
(PID.TID 0000.0001) //     16 ---------
(PID.TID 0000.0001) //     15 ---------
(PID.TID 0000.0001) //     14 ---------
(PID.TID 0000.0001) //     13 ---------
(PID.TID 0000.0001) //     12 ---------
(PID.TID 0000.0001) //     11 ---------
(PID.TID 0000.0001) //     10 ---------
(PID.TID 0000.0001) //      9 ---------
(PID.TID 0000.0001) //      8 ---------
(PID.TID 0000.0001) //      7 ---------
(PID.TID 0000.0001) //      6 ---------
(PID.TID 0000.0001) //      5 ---------
(PID.TID 0000.0001) //      4 ---------
(PID.TID 0000.0001) //      3 ---------
(PID.TID 0000.0001) //      2 ---------
(PID.TID 0000.0001) //      1 .........
(PID.TID 0000.0001) //      0 .........
(PID.TID 0000.0001) //     -1 .........
(PID.TID 0000.0001) //     -2 .........
(PID.TID 0000.0001) // =======================================================
(PID.TID 0000.0001) // END OF FIELD                                          =
(PID.TID 0000.0001) // =======================================================
(PID.TID 0000.0001) 
(PID.TID 0000.0001) // =======================================================
(PID.TID 0000.0001) // Field hFacC at iteration          0
(PID.TID 0000.0001) // CMIN =          1.000000000000000E+00
(PID.TID 0000.0001) // CMAX =          1.000000000000000E+00
(PID.TID 0000.0001) // CINT =          0.000000000000000E+00
(PID.TID 0000.0001) // SYMBOLS (CMIN->CMAX): -abcdefghijklmnopqrstuvwxyz+
(PID.TID 0000.0001) //                  0.0: .
(PID.TID 0000.0001) // RANGE I (Lo:Hi:Step):(    -2:     6:     1)
(PID.TID 0000.0001) // RANGE J (Lo:Hi:Step):(   403:    -2:    -1)
(PID.TID 0000.0001) // RANGE K (Lo:Hi:Step):(   1:   1:   1)
(PID.TID 0000.0001) // =======================================================
(PID.TID 0000.0001) // =======================================================
(PID.TID 0000.0001) // END OF FIELD                                          =
(PID.TID 0000.0001) // =======================================================
(PID.TID 0000.0001) 
(PID.TID 0000.0001) // =======================================================
(PID.TID 0000.0001) // Field hFacW at iteration          0
(PID.TID 0000.0001) // CMIN =          1.000000000000000E+00
(PID.TID 0000.0001) // CMAX =          1.000000000000000E+00
(PID.TID 0000.0001) // CINT =          0.000000000000000E+00
(PID.TID 0000.0001) // SYMBOLS (CMIN->CMAX): -abcdefghijklmnopqrstuvwxyz+
(PID.TID 0000.0001) //                  0.0: .
(PID.TID 0000.0001) // RANGE I (Lo:Hi:Step):(    -2:     6:     1)
(PID.TID 0000.0001) // RANGE J (Lo:Hi:Step):(   403:    -2:    -1)
(PID.TID 0000.0001) // RANGE K (Lo:Hi:Step):(   1:   1:   1)
(PID.TID 0000.0001) // =======================================================
(PID.TID 0000.0001) // =======================================================
(PID.TID 0000.0001) // END OF FIELD                                          =
(PID.TID 0000.0001) // =======================================================
(PID.TID 0000.0001) 
(PID.TID 0000.0001) // =======================================================
(PID.TID 0000.0001) // Field hFacS at iteration          0
(PID.TID 0000.0001) // CMIN =          1.000000000000000E+00
(PID.TID 0000.0001) // CMAX =          1.000000000000000E+00
(PID.TID 0000.0001) // CINT =          0.000000000000000E+00
(PID.TID 0000.0001) // SYMBOLS (CMIN->CMAX): -abcdefghijklmnopqrstuvwxyz+
(PID.TID 0000.0001) //                  0.0: .
(PID.TID 0000.0001) // RANGE I (Lo:Hi:Step):(    -2:     6:     1)
(PID.TID 0000.0001) // RANGE J (Lo:Hi:Step):(   403:    -2:    -1)
(PID.TID 0000.0001) // RANGE K (Lo:Hi:Step):(   1:   1:   1)
(PID.TID 0000.0001) // =======================================================
(PID.TID 0000.0001) // =======================================================
(PID.TID 0000.0001) // END OF FIELD                                          =
(PID.TID 0000.0001) // =======================================================
(PID.TID 0000.0001) 
(PID.TID 0000.0001)  MDS_READ_FIELD: opening global file: shelficemassinit.bin
(PID.TID 0000.0001) INI_CG2D: CG2D normalisation factor =  2.0597897904647066E-04
(PID.TID 0000.0001) 
 SURF_ADJUSTMENT: Iter=      8646 Nb_pts,Vol=       171  4.38127265E+06
 SURF_ADJUSTMENT: Iter=      8646 Nb_pts,Vol=       171  4.38127265E+06
(PID.TID 0000.0001) streamice solo_time_step: nIter0000008646 0.82E-01seconds
 time_step_loc    9.5129375951293768E-006
(PID.TID 0000.0001) END STREAMICE_ADVECT_THICKNESS
 cg2d: Sum(rhs),rhsMax =   3.93867359625674E-01  4.73600905074070E+01
(PID.TID 0000.0001)      cg2d_init_res =   1.42497335499799E-04
(PID.TID 0000.0001)      cg2d_iters(min,last) =      -1     109
(PID.TID 0000.0001)      cg2d_last_res =   8.73377729491073E-12
 SURF_ADJUSTMENT: Iter=      8647 Nb_pts,Vol=       171  4.38127265E+06
(PID.TID 0000.0001) CALLING FILL DIAGNOSTICS
(PID.TID 0000.0001) // =======================================================
(PID.TID 0000.0001) // Begin MONITOR dynamic field statistics
(PID.TID 0000.0001) // =======================================================
(PID.TID 0000.0001) %MON time_tsnumber                =                  8647
(PID.TID 0000.0001) %MON time_secondsf                =   2.5941000000000E+06
(PID.TID 0000.0001) %MON dynstat_eta_max              =   2.4655017764731E+00
(PID.TID 0000.0001) %MON dynstat_eta_min              =  -7.4822219607861E+00
(PID.TID 0000.0001) %MON dynstat_eta_mean             =  -2.0374346447353E+00
(PID.TID 0000.0001) %MON dynstat_eta_sd               =   2.5444364159944E+00
(PID.TID 0000.0001) %MON dynstat_eta_del2             =   1.4380709907798E-01
(PID.TID 0000.0001) %MON dynstat_uvel_max             =   1.4432249763116E-13
(PID.TID 0000.0001) %MON dynstat_uvel_min             =  -1.4688417063636E-13
(PID.TID 0000.0001) %MON dynstat_uvel_mean            =   5.6298288583642E-27
(PID.TID 0000.0001) %MON dynstat_uvel_sd              =   1.5428291344108E-14
(PID.TID 0000.0001) %MON dynstat_uvel_del2            =   2.4830116406632E-16
(PID.TID 0000.0001) %MON dynstat_vvel_max             =   1.2274693669501E-01
(PID.TID 0000.0001) %MON dynstat_vvel_min             =  -5.1175948146068E-02
(PID.TID 0000.0001) %MON dynstat_vvel_mean            =  -6.2109828972270E-06
(PID.TID 0000.0001) %MON dynstat_vvel_sd              =   2.7925412706437E-02
(PID.TID 0000.0001) %MON dynstat_vvel_del2            =   9.6024157692346E-06
(PID.TID 0000.0001) %MON dynstat_wvel_max             =   4.5535366194881E-03
(PID.TID 0000.0001) %MON dynstat_wvel_min             =  -1.4493787863499E-03
(PID.TID 0000.0001) %MON dynstat_wvel_mean            =   3.9722729015115E-05
(PID.TID 0000.0001) %MON dynstat_wvel_sd              =   2.5274718280250E-04
(PID.TID 0000.0001) %MON dynstat_wvel_del2            =   1.6405086457264E-06
(PID.TID 0000.0001) %MON dynstat_theta_max            =   1.1967000000000E+00
(PID.TID 0000.0001) %MON dynstat_theta_min            =  -1.8900031214756E+00
(PID.TID 0000.0001) %MON dynstat_theta_mean           =  -4.1604358844345E-01
(PID.TID 0000.0001) %MON dynstat_theta_sd             =   6.6319711025525E-01
(PID.TID 0000.0001) %MON dynstat_theta_del2           =   1.9673305714917E-05
(PID.TID 0000.0001) %MON dynstat_salt_max             =   3.4696700000000E+01
(PID.TID 0000.0001) %MON dynstat_salt_min             =   3.3842004390382E+01
(PID.TID 0000.0001) %MON dynstat_salt_mean            =   3.4426666076615E+01
(PID.TID 0000.0001) %MON dynstat_salt_sd              =   1.0766415299469E-01
(PID.TID 0000.0001) %MON dynstat_salt_del2            =   9.1461452828294E-06
(PID.TID 0000.0001) %MON advcfl_uvel_max              =   1.1932855852703E-14
(PID.TID 0000.0001) %MON advcfl_vvel_max              =   4.2396019867831E-02
(PID.TID 0000.0001) %MON advcfl_wvel_max              =   1.3660609858464E-01
(PID.TID 0000.0001) %MON advcfl_W_hf_max              =   1.3660609858464E-01
(PID.TID 0000.0001) %MON pe_b_mean                    =  -1.8202541363524E+00
(PID.TID 0000.0001) %MON ke_max                       =   7.4474981135292E-03
(PID.TID 0000.0001) %MON ke_mean                      =   3.8864419793425E-04
(PID.TID 0000.0001) %MON ke_vol                       =   1.3244512167683E+12
(PID.TID 0000.0001) // =======================================================
(PID.TID 0000.0001) // End MONITOR dynamic field statistics
(PID.TID 0000.0001) // =======================================================
(PID.TID 0000.0001) // =======================================================
(PID.TID 0000.0001) // Begin OBCS MONITOR field statistics
(PID.TID 0000.0001) // =======================================================
(PID.TID 0000.0001) %MON obc_N_vVel_max               =   2.5000000000000E-02
(PID.TID 0000.0001) %MON obc_N_vVel_min               =  -2.5000000000000E-02
(PID.TID 0000.0001) %MON obc_N_vVel_mean              =   2.5511584080271E-18
(PID.TID 0000.0001) %MON obc_N_vVel_sd                =   1.4578823256425E-02
(PID.TID 0000.0001) %MON obc_N_vVel_Int               =   3.2287061912939E-11
(PID.TID 0000.0001) // =======================================================
(PID.TID 0000.0001) // End OBCS MONITOR field statistics
(PID.TID 0000.0001) // =======================================================
 Computing Diagnostic #     23  ETAN         Counter:       1   Parms: SM      M1      
 Computing Diagnostic #     79  oceTAUX      Counter:       1   Parms: UU      U1      
           Vector  Mate for  oceTAUX      Diagnostic #     80  oceTAUY  exists 
 Computing Diagnostic #     80  oceTAUY      Counter:       1   Parms: VV      U1      
           Vector  Mate for  oceTAUY      Diagnostic #     79  oceTAUX  exists 
 Computing Diagnostic #     85  oceQnet      Counter:       1   Parms: SM      U1      
 Computing Diagnostic #     83  oceFWflx     Counter:       1   Parms: SM      U1      
 Computing Diagnostic #     76  MXLDEPTH     Counter:       1   Parms: SM      M1      
 Computing Diagnostic #    187  SHIfwFlx     Counter:       1   Parms: SM      L1      
 Computing Diagnostic #    188  SHIhtFlx     Counter:       1   Parms: SM      L1      
 Computing Diagnostic #    193  SHIgammT     Counter:       1   Parms: SM      L1      
 Computing Diagnostic #    194  SHIgammS     Counter:       1   Parms: SM      L1      
 Computing Diagnostic #    196  SHI_mass     Counter:       1   Parms: SM      L1      
 Computing Diagnostic #    195  SHIuStar     Counter:       1   Parms: SM      L1      
 Computing Diagnostic #    197  SHIRshel     Counter:       1   Parms: SM      L1      
 Computing Diagnostic #    198  SHI_MEff     Counter:       1   Parms: SM      L1      
 Computing Diagnostic #     30  UVEL         Counter:       1   Parms: UUR     MR      
           Vector  Mate for  UVEL         Diagnostic #     31  VVEL     exists 
 Computing Diagnostic #     31  VVEL         Counter:       1   Parms: VVR     MR      
           Vector  Mate for  VVEL         Diagnostic #     30  UVEL     exists 
 Computing Diagnostic #     32  WVEL         Counter:       1   Parms: WM      LR      
 Computing Diagnostic #     26  THETA        Counter:       1   Parms: SMR     MR      
 Computing Diagnostic #     27  SALT         Counter:       1   Parms: SMR     MR      
 Computing Diagnostic #     64  RHOAnoma     Counter:       1   Parms: SMR     MR      
 Computing Diagnostic #     78  CONVADJ      Counter:       1   Parms: SMR     LR      
 Computing Diagnostic #    199  SI_Uvel      Counter:       1   Parms: UZ      L1      
 Computing Diagnostic #    200  SI_Vvel      Counter:       1   Parms: VZ      L1      
 Computing Diagnostic #    201  SI_Thick     Counter:       1   Parms: SM      L1      
 Computing Diagnostic #    204  SI_hmask     Counter:       1   Parms: SM      L1      
 Computing Diagnostic #    203  SI_float     Counter:       1   Parms: SM      L1      
(PID.TID 0000.0001) streamice solo_time_step: nIter0000008647 0.82E-01seconds
 time_step_loc    9.5129375951293768E-006
(PID.TID 0000.0001) END STREAMICE_ADVECT_THICKNESS
 cg2d: Sum(rhs),rhsMax =   3.93859452586091E-01  4.73601485583173E+01
(PID.TID 0000.0001)      cg2d_init_res =   5.60012538548873E-05
(PID.TID 0000.0001)      cg2d_iters(min,last) =      -1     109
(PID.TID 0000.0001)      cg2d_last_res =   6.77668321507236E-12
 SURF_ADJUSTMENT: Iter=      8648 Nb_pts,Vol=       171  4.38127265E+06
(PID.TID 0000.0001) CALLING FILL DIAGNOSTICS
(PID.TID 0000.0001) // =======================================================
(PID.TID 0000.0001) // Begin MONITOR dynamic field statistics
(PID.TID 0000.0001) // =======================================================
(PID.TID 0000.0001) %MON time_tsnumber                =                  8648
(PID.TID 0000.0001) %MON time_secondsf                =   2.5944000000000E+06
(PID.TID 0000.0001) %MON dynstat_eta_max              =   2.4656737578046E+00
(PID.TID 0000.0001) %MON dynstat_eta_min              =  -7.4820228495014E+00
(PID.TID 0000.0001) %MON dynstat_eta_mean             =  -2.0373962397511E+00
(PID.TID 0000.0001) %MON dynstat_eta_sd               =   2.5444324931074E+00
(PID.TID 0000.0001) %MON dynstat_eta_del2             =   1.4380703164273E-01
(PID.TID 0000.0001) %MON dynstat_uvel_max             =   1.0895053732622E-13
(PID.TID 0000.0001) %MON dynstat_uvel_min             =  -1.0895053732622E-13
(PID.TID 0000.0001) %MON dynstat_uvel_mean            =   5.6270015473659E-27
(PID.TID 0000.0001) %MON dynstat_uvel_sd              =   1.5965159519152E-14
(PID.TID 0000.0001) %MON dynstat_uvel_del2            =   2.5423394755042E-16
(PID.TID 0000.0001) %MON dynstat_vvel_max             =   1.2277023513372E-01
(PID.TID 0000.0001) %MON dynstat_vvel_min             =  -5.1173003615186E-02
(PID.TID 0000.0001) %MON dynstat_vvel_mean            =  -5.4927007625143E-06
(PID.TID 0000.0001) %MON dynstat_vvel_sd              =   2.7926040992365E-02
(PID.TID 0000.0001) %MON dynstat_vvel_del2            =   9.4441268422099E-06
(PID.TID 0000.0001) %MON dynstat_wvel_max             =   4.5536131494269E-03
(PID.TID 0000.0001) %MON dynstat_wvel_min             =  -1.4493849988369E-03
(PID.TID 0000.0001) %MON dynstat_wvel_mean            =   3.9727671593185E-05
(PID.TID 0000.0001) %MON dynstat_wvel_sd              =   2.5274106578226E-04
(PID.TID 0000.0001) %MON dynstat_wvel_del2            =   1.6403319861513E-06
(PID.TID 0000.0001) %MON dynstat_theta_max            =   1.1967000000000E+00
(PID.TID 0000.0001) %MON dynstat_theta_min            =  -1.8900050052618E+00
(PID.TID 0000.0001) %MON dynstat_theta_mean           =  -4.1603181985444E-01
(PID.TID 0000.0001) %MON dynstat_theta_sd             =   6.6319235886968E-01
(PID.TID 0000.0001) %MON dynstat_theta_del2           =   1.9501801727286E-05
(PID.TID 0000.0001) %MON dynstat_salt_max             =   3.4696700000000E+01
(PID.TID 0000.0001) %MON dynstat_salt_min             =   3.3842028249212E+01
(PID.TID 0000.0001) %MON dynstat_salt_mean            =   3.4426666868489E+01
(PID.TID 0000.0001) %MON dynstat_salt_sd              =   1.0766361681913E-01
(PID.TID 0000.0001) %MON dynstat_salt_del2            =   9.1287134597885E-06
(PID.TID 0000.0001) %MON advcfl_uvel_max              =   9.3126809626681E-15
(PID.TID 0000.0001) %MON advcfl_vvel_max              =   4.2404067002016E-02
(PID.TID 0000.0001) %MON advcfl_wvel_max              =   1.3660839448281E-01
(PID.TID 0000.0001) %MON advcfl_W_hf_max              =   1.3660839448281E-01
(PID.TID 0000.0001) %MON pe_b_mean                    =  -1.8202348891279E+00
(PID.TID 0000.0001) %MON ke_max                       =   7.4479729989920E-03
(PID.TID 0000.0001) %MON ke_mean                      =   3.8866170185156E-04
(PID.TID 0000.0001) %MON ke_vol                       =   1.3244513688465E+12
(PID.TID 0000.0001) // =======================================================
(PID.TID 0000.0001) // End MONITOR dynamic field statistics
(PID.TID 0000.0001) // =======================================================
(PID.TID 0000.0001) // =======================================================
(PID.TID 0000.0001) // Begin OBCS MONITOR field statistics
(PID.TID 0000.0001) // =======================================================
(PID.TID 0000.0001) %MON obc_N_vVel_max               =   2.5000000000000E-02
(PID.TID 0000.0001) %MON obc_N_vVel_min               =  -2.5000000000000E-02
(PID.TID 0000.0001) %MON obc_N_vVel_mean              =   2.5511584080271E-18
(PID.TID 0000.0001) %MON obc_N_vVel_sd                =   1.4578823256425E-02
(PID.TID 0000.0001) %MON obc_N_vVel_Int               =   3.2287061912939E-11
(PID.TID 0000.0001) // =======================================================
(PID.TID 0000.0001) // End OBCS MONITOR field statistics
(PID.TID 0000.0001) // =======================================================
 Computing Diagnostic #     23  ETAN         Counter:       1   Parms: SM      M1      
 Computing Diagnostic #     79  oceTAUX      Counter:       1   Parms: UU      U1      
           Vector  Mate for  oceTAUX      Diagnostic #     80  oceTAUY  exists 
 Computing Diagnostic #     80  oceTAUY      Counter:       1   Parms: VV      U1      
           Vector  Mate for  oceTAUY      Diagnostic #     79  oceTAUX  exists 
 Computing Diagnostic #     85  oceQnet      Counter:       1   Parms: SM      U1      
 Computing Diagnostic #     83  oceFWflx     Counter:       1   Parms: SM      U1      
 Computing Diagnostic #     76  MXLDEPTH     Counter:       1   Parms: SM      M1      
 Computing Diagnostic #    187  SHIfwFlx     Counter:       1   Parms: SM      L1      
 Computing Diagnostic #    188  SHIhtFlx     Counter:       1   Parms: SM      L1      
 Computing Diagnostic #    193  SHIgammT     Counter:       1   Parms: SM      L1      
 Computing Diagnostic #    194  SHIgammS     Counter:       1   Parms: SM      L1      
 Computing Diagnostic #    196  SHI_mass     Counter:       1   Parms: SM      L1      
 Computing Diagnostic #    195  SHIuStar     Counter:       1   Parms: SM      L1      
 Computing Diagnostic #    197  SHIRshel     Counter:       1   Parms: SM      L1      
 Computing Diagnostic #    198  SHI_MEff     Counter:       1   Parms: SM      L1      
 Computing Diagnostic #     30  UVEL         Counter:       1   Parms: UUR     MR      
           Vector  Mate for  UVEL         Diagnostic #     31  VVEL     exists 
 Computing Diagnostic #     31  VVEL         Counter:       1   Parms: VVR     MR      
           Vector  Mate for  VVEL         Diagnostic #     30  UVEL     exists 
 Computing Diagnostic #     32  WVEL         Counter:       1   Parms: WM      LR      
 Computing Diagnostic #     26  THETA        Counter:       1   Parms: SMR     MR      
 Computing Diagnostic #     27  SALT         Counter:       1   Parms: SMR     MR      
 Computing Diagnostic #     64  RHOAnoma     Counter:       1   Parms: SMR     MR      
 Computing Diagnostic #     78  CONVADJ      Counter:       1   Parms: SMR     LR      
 Computing Diagnostic #    199  SI_Uvel      Counter:       1   Parms: UZ      L1      
 Computing Diagnostic #    200  SI_Vvel      Counter:       1   Parms: VZ      L1      
 Computing Diagnostic #    201  SI_Thick     Counter:       1   Parms: SM      L1      
 Computing Diagnostic #    204  SI_hmask     Counter:       1   Parms: SM      L1      
 Computing Diagnostic #    203  SI_float     Counter:       1   Parms: SM      L1      
(PID.TID 0000.0001) streamice solo_time_step: nIter0000008648 0.82E-01seconds
 time_step_loc    9.5129375951293768E-006
(PID.TID 0000.0001) END STREAMICE_ADVECT_THICKNESS
 cg2d: Sum(rhs),rhsMax =   3.93851536743744E-01  4.73602048554968E+01
(PID.TID 0000.0001)      cg2d_init_res =   5.43638484482784E-05
(PID.TID 0000.0001)      cg2d_iters(min,last) =      -1     110
(PID.TID 0000.0001)      cg2d_last_res =   3.70510277604344E-12
 SURF_ADJUSTMENT: Iter=      8649 Nb_pts,Vol=       171  4.38127265E+06
(PID.TID 0000.0001) CALLING FILL DIAGNOSTICS
(PID.TID 0000.0001) // =======================================================
(PID.TID 0000.0001) // Begin MONITOR dynamic field statistics
(PID.TID 0000.0001) // =======================================================
(PID.TID 0000.0001) %MON time_tsnumber                =                  8649
(PID.TID 0000.0001) %MON time_secondsf                =   2.5947000000000E+06
(PID.TID 0000.0001) %MON dynstat_eta_max              =   2.4658531466362E+00
(PID.TID 0000.0001) %MON dynstat_eta_min              =  -7.4818321199148E+00
(PID.TID 0000.0001) %MON dynstat_eta_mean             =  -2.0373577136882E+00
(PID.TID 0000.0001) %MON dynstat_eta_sd               =   2.5444296138757E+00
(PID.TID 0000.0001) %MON dynstat_eta_del2             =   1.4380703485855E-01
(PID.TID 0000.0001) %MON dynstat_uvel_max             =   1.6877531477891E-13
(PID.TID 0000.0001) %MON dynstat_uvel_min             =  -1.6858514836524E-13
(PID.TID 0000.0001) %MON dynstat_uvel_mean            =   5.6253820719774E-27
(PID.TID 0000.0001) %MON dynstat_uvel_sd              =   1.4515108797437E-14
(PID.TID 0000.0001) %MON dynstat_uvel_del2            =   2.3304868093965E-16
(PID.TID 0000.0001) %MON dynstat_vvel_max             =   1.2267219924771E-01
(PID.TID 0000.0001) %MON dynstat_vvel_min             =  -5.1170636000796E-02
(PID.TID 0000.0001) %MON dynstat_vvel_mean            =  -5.0645268375535E-06
(PID.TID 0000.0001) %MON dynstat_vvel_sd              =   2.7926649492570E-02
(PID.TID 0000.0001) %MON dynstat_vvel_del2            =   9.1012998262168E-06
(PID.TID 0000.0001) %MON dynstat_wvel_max             =   4.5534297214375E-03
(PID.TID 0000.0001) %MON dynstat_wvel_min             =  -1.4493860997527E-03
(PID.TID 0000.0001) %MON dynstat_wvel_mean            =   3.9729609466054E-05
(PID.TID 0000.0001) %MON dynstat_wvel_sd              =   2.5273300130165E-04
(PID.TID 0000.0001) %MON dynstat_wvel_del2            =   1.6402347884142E-06
(PID.TID 0000.0001) %MON dynstat_theta_max            =   1.1967000000000E+00
(PID.TID 0000.0001) %MON dynstat_theta_min            =  -1.8900068246239E+00
(PID.TID 0000.0001) %MON dynstat_theta_mean           =  -4.1602008883419E-01
(PID.TID 0000.0001) %MON dynstat_theta_sd             =   6.6318759513959E-01
(PID.TID 0000.0001) %MON dynstat_theta_del2           =   1.9355237804607E-05
(PID.TID 0000.0001) %MON dynstat_salt_max             =   3.4696700000000E+01
(PID.TID 0000.0001) %MON dynstat_salt_min             =   3.3842050085577E+01
(PID.TID 0000.0001) %MON dynstat_salt_mean            =   3.4426667647906E+01
(PID.TID 0000.0001) %MON dynstat_salt_sd              =   1.0766308018727E-01
(PID.TID 0000.0001) %MON dynstat_salt_del2            =   9.1141632858637E-06
(PID.TID 0000.0001) %MON advcfl_uvel_max              =   1.3438924020131E-14
(PID.TID 0000.0001) %MON advcfl_vvel_max              =   4.2370206023626E-02
(PID.TID 0000.0001) %MON advcfl_wvel_max              =   1.3660289164312E-01
(PID.TID 0000.0001) %MON advcfl_W_hf_max              =   1.3660289164312E-01
(PID.TID 0000.0001) %MON pe_b_mean                    =  -1.8202158294763E+00
(PID.TID 0000.0001) %MON ke_max                       =   7.4408647245301E-03
(PID.TID 0000.0001) %MON ke_mean                      =   3.8867865671659E-04
(PID.TID 0000.0001) %MON ke_vol                       =   1.3244515224800E+12
(PID.TID 0000.0001) // =======================================================
(PID.TID 0000.0001) // End MONITOR dynamic field statistics
(PID.TID 0000.0001) // =======================================================
(PID.TID 0000.0001) // =======================================================
(PID.TID 0000.0001) // Begin OBCS MONITOR field statistics
(PID.TID 0000.0001) // =======================================================
(PID.TID 0000.0001) %MON obc_N_vVel_max               =   2.5000000000000E-02
(PID.TID 0000.0001) %MON obc_N_vVel_min               =  -2.5000000000000E-02
(PID.TID 0000.0001) %MON obc_N_vVel_mean              =   2.5511584080271E-18
(PID.TID 0000.0001) %MON obc_N_vVel_sd                =   1.4578823256425E-02
(PID.TID 0000.0001) %MON obc_N_vVel_Int               =   3.2287061912939E-11
(PID.TID 0000.0001) // =======================================================
(PID.TID 0000.0001) // End OBCS MONITOR field statistics
(PID.TID 0000.0001) // =======================================================
 Computing Diagnostic #     23  ETAN         Counter:       1   Parms: SM      M1      
 Computing Diagnostic #     79  oceTAUX      Counter:       1   Parms: UU      U1      
           Vector  Mate for  oceTAUX      Diagnostic #     80  oceTAUY  exists 
 Computing Diagnostic #     80  oceTAUY      Counter:       1   Parms: VV      U1      
           Vector  Mate for  oceTAUY      Diagnostic #     79  oceTAUX  exists 
 Computing Diagnostic #     85  oceQnet      Counter:       1   Parms: SM      U1      
 Computing Diagnostic #     83  oceFWflx     Counter:       1   Parms: SM      U1      
 Computing Diagnostic #     76  MXLDEPTH     Counter:       1   Parms: SM      M1      
 Computing Diagnostic #    187  SHIfwFlx     Counter:       1   Parms: SM      L1      
 Computing Diagnostic #    188  SHIhtFlx     Counter:       1   Parms: SM      L1      
 Computing Diagnostic #    193  SHIgammT     Counter:       1   Parms: SM      L1      
 Computing Diagnostic #    194  SHIgammS     Counter:       1   Parms: SM      L1      
 Computing Diagnostic #    196  SHI_mass     Counter:       1   Parms: SM      L1      
 Computing Diagnostic #    195  SHIuStar     Counter:       1   Parms: SM      L1      
 Computing Diagnostic #    197  SHIRshel     Counter:       1   Parms: SM      L1      
 Computing Diagnostic #    198  SHI_MEff     Counter:       1   Parms: SM      L1      
 Computing Diagnostic #     30  UVEL         Counter:       1   Parms: UUR     MR      
           Vector  Mate for  UVEL         Diagnostic #     31  VVEL     exists 
 Computing Diagnostic #     31  VVEL         Counter:       1   Parms: VVR     MR      
           Vector  Mate for  VVEL         Diagnostic #     30  UVEL     exists 
 Computing Diagnostic #     32  WVEL         Counter:       1   Parms: WM      LR      
 Computing Diagnostic #     26  THETA        Counter:       1   Parms: SMR     MR      
 Computing Diagnostic #     27  SALT         Counter:       1   Parms: SMR     MR      
 Computing Diagnostic #     64  RHOAnoma     Counter:       1   Parms: SMR     MR      
 Computing Diagnostic #     78  CONVADJ      Counter:       1   Parms: SMR     LR      
 Computing Diagnostic #    199  SI_Uvel      Counter:       1   Parms: UZ      L1      
 Computing Diagnostic #    200  SI_Vvel      Counter:       1   Parms: VZ      L1      
 Computing Diagnostic #    201  SI_Thick     Counter:       1   Parms: SM      L1      
 Computing Diagnostic #    204  SI_hmask     Counter:       1   Parms: SM      L1      
 Computing Diagnostic #    203  SI_float     Counter:       1   Parms: SM      L1      
(PID.TID 0000.0001) streamice solo_time_step: nIter0000008649 0.82E-01seconds
 time_step_loc    9.5129375951293768E-006
(PID.TID 0000.0001) END STREAMICE_ADVECT_THICKNESS
 cg2d: Sum(rhs),rhsMax =   3.93843595232046E-01  4.73602609300017E+01
(PID.TID 0000.0001)      cg2d_init_res =   5.43090485780099E-05
(PID.TID 0000.0001)      cg2d_iters(min,last) =      -1     109
(PID.TID 0000.0001)      cg2d_last_res =   9.36121011908525E-12
 SURF_ADJUSTMENT: Iter=      8650 Nb_pts,Vol=       171  4.38127265E+06
(PID.TID 0000.0001) CALLING FILL DIAGNOSTICS
(PID.TID 0000.0001) // =======================================================
(PID.TID 0000.0001) // Begin MONITOR dynamic field statistics
(PID.TID 0000.0001) // =======================================================
(PID.TID 0000.0001) %MON time_tsnumber                =                  8650
(PID.TID 0000.0001) %MON time_secondsf                =   2.5950000000000E+06
(PID.TID 0000.0001) %MON dynstat_eta_max              =   2.4660326559817E+00
(PID.TID 0000.0001) %MON dynstat_eta_min              =  -7.4816419784187E+00
(PID.TID 0000.0001) %MON dynstat_eta_mean             =  -2.0373190451637E+00
(PID.TID 0000.0001) %MON dynstat_eta_sd               =   2.5444263914294E+00
(PID.TID 0000.0001) %MON dynstat_eta_del2             =   1.4380703587484E-01
(PID.TID 0000.0001) %MON dynstat_uvel_max             =   8.5570771891417E-14
(PID.TID 0000.0001) %MON dynstat_uvel_min             =  -9.7881718648872E-14
(PID.TID 0000.0001) %MON dynstat_uvel_mean            =   5.6286677469352E-27
(PID.TID 0000.0001) %MON dynstat_uvel_sd              =   1.6636877894909E-14
(PID.TID 0000.0001) %MON dynstat_uvel_del2            =   2.6551824400117E-16
(PID.TID 0000.0001) %MON dynstat_vvel_max             =   1.2261391488196E-01
(PID.TID 0000.0001) %MON dynstat_vvel_min             =  -5.1168824987370E-02
(PID.TID 0000.0001) %MON dynstat_vvel_mean            =  -5.1667121677434E-06
(PID.TID 0000.0001) %MON dynstat_vvel_sd              =   2.7927329194360E-02
(PID.TID 0000.0001) %MON dynstat_vvel_del2            =   8.9219682521723E-06
(PID.TID 0000.0001) %MON dynstat_wvel_max             =   4.5529717884742E-03
(PID.TID 0000.0001) %MON dynstat_wvel_min             =  -1.4493885900550E-03
(PID.TID 0000.0001) %MON dynstat_wvel_mean            =   3.9727561329430E-05
(PID.TID 0000.0001) %MON dynstat_wvel_sd              =   2.5271908024462E-04
(PID.TID 0000.0001) %MON dynstat_wvel_del2            =   1.6400645214627E-06
(PID.TID 0000.0001) %MON dynstat_theta_max            =   1.1967000000000E+00
(PID.TID 0000.0001) %MON dynstat_theta_min            =  -1.8900085876392E+00
(PID.TID 0000.0001) %MON dynstat_theta_mean           =  -4.1600840115505E-01
(PID.TID 0000.0001) %MON dynstat_theta_sd             =   6.6318281623443E-01
(PID.TID 0000.0001) %MON dynstat_theta_del2           =   1.9230387043841E-05
(PID.TID 0000.0001) %MON dynstat_salt_max             =   3.4696700000000E+01
(PID.TID 0000.0001) %MON dynstat_salt_min             =   3.3842069777954E+01
(PID.TID 0000.0001) %MON dynstat_salt_mean            =   3.4426668412496E+01
(PID.TID 0000.0001) %MON dynstat_salt_sd              =   1.0766254411883E-01
(PID.TID 0000.0001) %MON dynstat_salt_del2            =   9.1021824668553E-06
(PID.TID 0000.0001) %MON advcfl_uvel_max              =   7.7813394847490E-15
(PID.TID 0000.0001) %MON advcfl_vvel_max              =   4.2350074970300E-02
(PID.TID 0000.0001) %MON advcfl_wvel_max              =   1.3658915365423E-01
(PID.TID 0000.0001) %MON advcfl_W_hf_max              =   1.3658915365423E-01
(PID.TID 0000.0001) %MON pe_b_mean                    =  -1.8201965320417E+00
(PID.TID 0000.0001) %MON ke_max                       =   7.4349943287719E-03
(PID.TID 0000.0001) %MON ke_mean                      =   3.8869759895152E-04
(PID.TID 0000.0001) %MON ke_vol                       =   1.3244516765979E+12
(PID.TID 0000.0001) // =======================================================
(PID.TID 0000.0001) // End MONITOR dynamic field statistics
(PID.TID 0000.0001) // =======================================================
(PID.TID 0000.0001) // =======================================================
(PID.TID 0000.0001) // Begin OBCS MONITOR field statistics
(PID.TID 0000.0001) // =======================================================
(PID.TID 0000.0001) %MON obc_N_vVel_max               =   2.5000000000000E-02
(PID.TID 0000.0001) %MON obc_N_vVel_min               =  -2.5000000000000E-02
(PID.TID 0000.0001) %MON obc_N_vVel_mean              =   2.5511584080271E-18
(PID.TID 0000.0001) %MON obc_N_vVel_sd                =   1.4578823256425E-02
(PID.TID 0000.0001) %MON obc_N_vVel_Int               =   3.2287061912939E-11
(PID.TID 0000.0001) // =======================================================
(PID.TID 0000.0001) // End OBCS MONITOR field statistics
(PID.TID 0000.0001) // =======================================================
 Computing Diagnostic #     23  ETAN         Counter:       1   Parms: SM      M1      
 Computing Diagnostic #     79  oceTAUX      Counter:       1   Parms: UU      U1      
           Vector  Mate for  oceTAUX      Diagnostic #     80  oceTAUY  exists 
 Computing Diagnostic #     80  oceTAUY      Counter:       1   Parms: VV      U1      
           Vector  Mate for  oceTAUY      Diagnostic #     79  oceTAUX  exists 
 Computing Diagnostic #     85  oceQnet      Counter:       1   Parms: SM      U1      
 Computing Diagnostic #     83  oceFWflx     Counter:       1   Parms: SM      U1      
 Computing Diagnostic #     76  MXLDEPTH     Counter:       1   Parms: SM      M1      
 Computing Diagnostic #    187  SHIfwFlx     Counter:       1   Parms: SM      L1      
 Computing Diagnostic #    188  SHIhtFlx     Counter:       1   Parms: SM      L1      
 Computing Diagnostic #    193  SHIgammT     Counter:       1   Parms: SM      L1      
 Computing Diagnostic #    194  SHIgammS     Counter:       1   Parms: SM      L1      
 Computing Diagnostic #    196  SHI_mass     Counter:       1   Parms: SM      L1      
 Computing Diagnostic #    195  SHIuStar     Counter:       1   Parms: SM      L1      
 Computing Diagnostic #    197  SHIRshel     Counter:       1   Parms: SM      L1      
 Computing Diagnostic #    198  SHI_MEff     Counter:       1   Parms: SM      L1      
 Computing Diagnostic #     30  UVEL         Counter:       1   Parms: UUR     MR      
           Vector  Mate for  UVEL         Diagnostic #     31  VVEL     exists 
 Computing Diagnostic #     31  VVEL         Counter:       1   Parms: VVR     MR      
           Vector  Mate for  VVEL         Diagnostic #     30  UVEL     exists 
 Computing Diagnostic #     32  WVEL         Counter:       1   Parms: WM      LR      
 Computing Diagnostic #     26  THETA        Counter:       1   Parms: SMR     MR      
 Computing Diagnostic #     27  SALT         Counter:       1   Parms: SMR     MR      
 Computing Diagnostic #     64  RHOAnoma     Counter:       1   Parms: SMR     MR      
 Computing Diagnostic #     78  CONVADJ      Counter:       1   Parms: SMR     LR      
 Computing Diagnostic #    199  SI_Uvel      Counter:       1   Parms: UZ      L1      
 Computing Diagnostic #    200  SI_Vvel      Counter:       1   Parms: VZ      L1      
 Computing Diagnostic #    201  SI_Thick     Counter:       1   Parms: SM      L1      
 Computing Diagnostic #    204  SI_hmask     Counter:       1   Parms: SM      L1      
 Computing Diagnostic #    203  SI_float     Counter:       1   Parms: SM      L1      
(PID.TID 0000.0001) streamice solo_time_step: nIter0000008650 0.82E-01seconds
 time_step_loc    9.5129375951293768E-006
(PID.TID 0000.0001) END STREAMICE_ADVECT_THICKNESS
 cg2d: Sum(rhs),rhsMax =   3.93835633836419E-01  4.73603167507388E+01
(PID.TID 0000.0001)      cg2d_init_res =   5.41904302841185E-05
(PID.TID 0000.0001)      cg2d_iters(min,last) =      -1     109
(PID.TID 0000.0001)      cg2d_last_res =   8.70652127440429E-12
 SURF_ADJUSTMENT: Iter=      8651 Nb_pts,Vol=       171  4.38127265E+06
(PID.TID 0000.0001) CALLING FILL DIAGNOSTICS
(PID.TID 0000.0001) // =======================================================
(PID.TID 0000.0001) // Begin MONITOR dynamic field statistics
(PID.TID 0000.0001) // =======================================================
(PID.TID 0000.0001) %MON time_tsnumber                =                  8651
(PID.TID 0000.0001) %MON time_secondsf                =   2.5953000000000E+06
(PID.TID 0000.0001) %MON dynstat_eta_max              =   2.4662129139641E+00
(PID.TID 0000.0001) %MON dynstat_eta_min              =  -7.4814513110230E+00
(PID.TID 0000.0001) %MON dynstat_eta_mean             =  -2.0372802627677E+00
(PID.TID 0000.0001) %MON dynstat_eta_sd               =   2.5444225911114E+00
(PID.TID 0000.0001) %MON dynstat_eta_del2             =   1.4380704455808E-01
(PID.TID 0000.0001) %MON dynstat_uvel_max             =   1.0962560136871E-13
(PID.TID 0000.0001) %MON dynstat_uvel_min             =  -9.2191768286582E-14
(PID.TID 0000.0001) %MON dynstat_uvel_mean            =   5.6271347643231E-27
(PID.TID 0000.0001) %MON dynstat_uvel_sd              =   1.7176947452073E-14
(PID.TID 0000.0001) %MON dynstat_uvel_del2            =   2.7429149849013E-16
(PID.TID 0000.0001) %MON dynstat_vvel_max             =   1.2250948047847E-01
(PID.TID 0000.0001) %MON dynstat_vvel_min             =  -5.1167469022917E-02
(PID.TID 0000.0001) %MON dynstat_vvel_mean            =  -5.6832507615291E-06
(PID.TID 0000.0001) %MON dynstat_vvel_sd              =   2.7928024466841E-02
(PID.TID 0000.0001) %MON dynstat_vvel_del2            =   8.7776873002968E-06
(PID.TID 0000.0001) %MON dynstat_wvel_max             =   4.5523603054973E-03
(PID.TID 0000.0001) %MON dynstat_wvel_min             =  -1.4493954855753E-03
(PID.TID 0000.0001) %MON dynstat_wvel_mean            =   3.9722936312929E-05
(PID.TID 0000.0001) %MON dynstat_wvel_sd              =   2.5270304956715E-04
(PID.TID 0000.0001) %MON dynstat_wvel_del2            =   1.6399191288517E-06
(PID.TID 0000.0001) %MON dynstat_theta_max            =   1.1967000000000E+00
(PID.TID 0000.0001) %MON dynstat_theta_min            =  -1.8900103075251E+00
(PID.TID 0000.0001) %MON dynstat_theta_mean           =  -4.1599674842233E-01
(PID.TID 0000.0001) %MON dynstat_theta_sd             =   6.6317802519113E-01
(PID.TID 0000.0001) %MON dynstat_theta_del2           =   1.9123512837023E-05
(PID.TID 0000.0001) %MON dynstat_salt_max             =   3.4696700000000E+01
(PID.TID 0000.0001) %MON dynstat_salt_min             =   3.3842087234974E+01
(PID.TID 0000.0001) %MON dynstat_salt_mean            =   3.4426669165298E+01
(PID.TID 0000.0001) %MON dynstat_salt_sd              =   1.0766200822040E-01
(PID.TID 0000.0001) %MON dynstat_salt_del2            =   9.0922128765697E-06
(PID.TID 0000.0001) %MON advcfl_uvel_max              =   8.7290616485306E-15
(PID.TID 0000.0001) %MON advcfl_vvel_max              =   4.2314003984215E-02
(PID.TID 0000.0001) %MON advcfl_wvel_max              =   1.3657080916492E-01
(PID.TID 0000.0001) %MON advcfl_W_hf_max              =   1.3657080916492E-01
(PID.TID 0000.0001) %MON pe_b_mean                    =  -1.8201767167035E+00
(PID.TID 0000.0001) %MON ke_max                       =   7.4265110439038E-03
(PID.TID 0000.0001) %MON ke_mean                      =   3.8871697784995E-04
(PID.TID 0000.0001) %MON ke_vol                       =   1.3244518312857E+12
(PID.TID 0000.0001) // =======================================================
(PID.TID 0000.0001) // End MONITOR dynamic field statistics
(PID.TID 0000.0001) // =======================================================
(PID.TID 0000.0001) // =======================================================
(PID.TID 0000.0001) // Begin OBCS MONITOR field statistics
(PID.TID 0000.0001) // =======================================================
(PID.TID 0000.0001) %MON obc_N_vVel_max               =   2.5000000000000E-02
(PID.TID 0000.0001) %MON obc_N_vVel_min               =  -2.5000000000000E-02
(PID.TID 0000.0001) %MON obc_N_vVel_mean              =   2.5511584080271E-18
(PID.TID 0000.0001) %MON obc_N_vVel_sd                =   1.4578823256425E-02
(PID.TID 0000.0001) %MON obc_N_vVel_Int               =   3.2287061912939E-11
(PID.TID 0000.0001) // =======================================================
(PID.TID 0000.0001) // End OBCS MONITOR field statistics
(PID.TID 0000.0001) // =======================================================
 Computing Diagnostic #     23  ETAN         Counter:       1   Parms: SM      M1      
 Computing Diagnostic #     79  oceTAUX      Counter:       1   Parms: UU      U1      
           Vector  Mate for  oceTAUX      Diagnostic #     80  oceTAUY  exists 
 Computing Diagnostic #     80  oceTAUY      Counter:       1   Parms: VV      U1      
           Vector  Mate for  oceTAUY      Diagnostic #     79  oceTAUX  exists 
 Computing Diagnostic #     85  oceQnet      Counter:       1   Parms: SM      U1      
 Computing Diagnostic #     83  oceFWflx     Counter:       1   Parms: SM      U1      
 Computing Diagnostic #     76  MXLDEPTH     Counter:       1   Parms: SM      M1      
 Computing Diagnostic #    187  SHIfwFlx     Counter:       1   Parms: SM      L1      
 Computing Diagnostic #    188  SHIhtFlx     Counter:       1   Parms: SM      L1      
 Computing Diagnostic #    193  SHIgammT     Counter:       1   Parms: SM      L1      
 Computing Diagnostic #    194  SHIgammS     Counter:       1   Parms: SM      L1      
 Computing Diagnostic #    196  SHI_mass     Counter:       1   Parms: SM      L1      
 Computing Diagnostic #    195  SHIuStar     Counter:       1   Parms: SM      L1      
 Computing Diagnostic #    197  SHIRshel     Counter:       1   Parms: SM      L1      
 Computing Diagnostic #    198  SHI_MEff     Counter:       1   Parms: SM      L1      
 Computing Diagnostic #     30  UVEL         Counter:       1   Parms: UUR     MR      
           Vector  Mate for  UVEL         Diagnostic #     31  VVEL     exists 
 Computing Diagnostic #     31  VVEL         Counter:       1   Parms: VVR     MR      
           Vector  Mate for  VVEL         Diagnostic #     30  UVEL     exists 
 Computing Diagnostic #     32  WVEL         Counter:       1   Parms: WM      LR      
 Computing Diagnostic #     26  THETA        Counter:       1   Parms: SMR     MR      
 Computing Diagnostic #     27  SALT         Counter:       1   Parms: SMR     MR      
 Computing Diagnostic #     64  RHOAnoma     Counter:       1   Parms: SMR     MR      
 Computing Diagnostic #     78  CONVADJ      Counter:       1   Parms: SMR     LR      
 Computing Diagnostic #    199  SI_Uvel      Counter:       1   Parms: UZ      L1      
 Computing Diagnostic #    200  SI_Vvel      Counter:       1   Parms: VZ      L1      
 Computing Diagnostic #    201  SI_Thick     Counter:       1   Parms: SM      L1      
 Computing Diagnostic #    204  SI_hmask     Counter:       1   Parms: SM      L1      
 Computing Diagnostic #    203  SI_float     Counter:       1   Parms: SM      L1      
(PID.TID 0000.0001) streamice solo_time_step: nIter0000008651 0.82E-01seconds
 time_step_loc    9.5129375951293768E-006
(PID.TID 0000.0001) END STREAMICE_ADVECT_THICKNESS
 cg2d: Sum(rhs),rhsMax =   3.93827653590237E-01  4.73603724596662E+01
(PID.TID 0000.0001)      cg2d_init_res =   5.41247138133965E-05
(PID.TID 0000.0001)      cg2d_iters(min,last) =      -1     109
(PID.TID 0000.0001)      cg2d_last_res =   7.59009134120998E-12
 SURF_ADJUSTMENT: Iter=      8652 Nb_pts,Vol=       171  4.38127265E+06
(PID.TID 0000.0001) CALLING FILL DIAGNOSTICS
(PID.TID 0000.0001) // =======================================================
(PID.TID 0000.0001) // Begin MONITOR dynamic field statistics
(PID.TID 0000.0001) // =======================================================
(PID.TID 0000.0001) %MON time_tsnumber                =                  8652
(PID.TID 0000.0001) %MON time_secondsf                =   2.5956000000000E+06
(PID.TID 0000.0001) %MON dynstat_eta_max              =   2.4663949930542E+00
(PID.TID 0000.0001) %MON dynstat_eta_min              =  -7.4812583961223E+00
(PID.TID 0000.0001) %MON dynstat_eta_mean             =  -2.0372413779526E+00
(PID.TID 0000.0001) %MON dynstat_eta_sd               =   2.5444180713350E+00
(PID.TID 0000.0001) %MON dynstat_eta_del2             =   1.4380705780315E-01
(PID.TID 0000.0001) %MON dynstat_uvel_max             =   1.4205580548039E-13
(PID.TID 0000.0001) %MON dynstat_uvel_min             =  -1.6244405393107E-13
(PID.TID 0000.0001) %MON dynstat_uvel_mean            =   5.6277967430201E-27
(PID.TID 0000.0001) %MON dynstat_uvel_sd              =   1.5654463584877E-14
(PID.TID 0000.0001) %MON dynstat_uvel_del2            =   2.5223280918263E-16
(PID.TID 0000.0001) %MON dynstat_vvel_max             =   1.2240293163446E-01
(PID.TID 0000.0001) %MON dynstat_vvel_min             =  -5.1166414704156E-02
(PID.TID 0000.0001) %MON dynstat_vvel_mean            =  -6.4574656815112E-06
(PID.TID 0000.0001) %MON dynstat_vvel_sd              =   2.7928723669400E-02
(PID.TID 0000.0001) %MON dynstat_vvel_del2            =   8.6782462615118E-06
(PID.TID 0000.0001) %MON dynstat_wvel_max             =   4.5516859802257E-03
(PID.TID 0000.0001) %MON dynstat_wvel_min             =  -1.4494065581493E-03
(PID.TID 0000.0001) %MON dynstat_wvel_mean            =   3.9716739432322E-05
(PID.TID 0000.0001) %MON dynstat_wvel_sd              =   2.5268527724357E-04
(PID.TID 0000.0001) %MON dynstat_wvel_del2            =   1.6397469377764E-06
(PID.TID 0000.0001) %MON dynstat_theta_max            =   1.1967000000000E+00
(PID.TID 0000.0001) %MON dynstat_theta_min            =  -1.8900119949548E+00
(PID.TID 0000.0001) %MON dynstat_theta_mean           =  -4.1598512683743E-01
(PID.TID 0000.0001) %MON dynstat_theta_sd             =   6.6317322285571E-01
(PID.TID 0000.0001) %MON dynstat_theta_del2           =   1.9031803832932E-05
(PID.TID 0000.0001) %MON dynstat_salt_max             =   3.4696700000000E+01
(PID.TID 0000.0001) %MON dynstat_salt_min             =   3.3842102430741E+01
(PID.TID 0000.0001) %MON dynstat_salt_mean            =   3.4426669907633E+01
(PID.TID 0000.0001) %MON dynstat_salt_sd              =   1.0766147218526E-01
(PID.TID 0000.0001) %MON dynstat_salt_del2            =   9.0838939088092E-06
(PID.TID 0000.0001) %MON advcfl_uvel_max              =   1.3456753534014E-14
(PID.TID 0000.0001) %MON advcfl_vvel_max              =   4.2277202683678E-02
(PID.TID 0000.0001) %MON advcfl_wvel_max              =   1.3655057940677E-01
(PID.TID 0000.0001) %MON advcfl_W_hf_max              =   1.3655057940677E-01
(PID.TID 0000.0001) %MON pe_b_mean                    =  -1.8201562038417E+00
(PID.TID 0000.0001) %MON ke_max                       =   7.4171392975383E-03
(PID.TID 0000.0001) %MON ke_mean                      =   3.8873646865898E-04
(PID.TID 0000.0001) %MON ke_vol                       =   1.3244519864290E+12
(PID.TID 0000.0001) // =======================================================
(PID.TID 0000.0001) // End MONITOR dynamic field statistics
(PID.TID 0000.0001) // =======================================================
(PID.TID 0000.0001) // =======================================================
(PID.TID 0000.0001) // Begin OBCS MONITOR field statistics
(PID.TID 0000.0001) // =======================================================
(PID.TID 0000.0001) %MON obc_N_vVel_max               =   2.5000000000000E-02
(PID.TID 0000.0001) %MON obc_N_vVel_min               =  -2.5000000000000E-02
(PID.TID 0000.0001) %MON obc_N_vVel_mean              =   2.5511584080271E-18
(PID.TID 0000.0001) %MON obc_N_vVel_sd                =   1.4578823256425E-02
(PID.TID 0000.0001) %MON obc_N_vVel_Int               =   3.2287061912939E-11
(PID.TID 0000.0001) // =======================================================
(PID.TID 0000.0001) // End OBCS MONITOR field statistics
(PID.TID 0000.0001) // =======================================================
 Computing Diagnostic #     23  ETAN         Counter:       1   Parms: SM      M1      
 Computing Diagnostic #     79  oceTAUX      Counter:       1   Parms: UU      U1      
           Vector  Mate for  oceTAUX      Diagnostic #     80  oceTAUY  exists 
 Computing Diagnostic #     80  oceTAUY      Counter:       1   Parms: VV      U1      
           Vector  Mate for  oceTAUY      Diagnostic #     79  oceTAUX  exists 
 Computing Diagnostic #     85  oceQnet      Counter:       1   Parms: SM      U1      
 Computing Diagnostic #     83  oceFWflx     Counter:       1   Parms: SM      U1      
 Computing Diagnostic #     76  MXLDEPTH     Counter:       1   Parms: SM      M1      
 Computing Diagnostic #    187  SHIfwFlx     Counter:       1   Parms: SM      L1      
 Computing Diagnostic #    188  SHIhtFlx     Counter:       1   Parms: SM      L1      
 Computing Diagnostic #    193  SHIgammT     Counter:       1   Parms: SM      L1      
 Computing Diagnostic #    194  SHIgammS     Counter:       1   Parms: SM      L1      
 Computing Diagnostic #    196  SHI_mass     Counter:       1   Parms: SM      L1      
 Computing Diagnostic #    195  SHIuStar     Counter:       1   Parms: SM      L1      
 Computing Diagnostic #    197  SHIRshel     Counter:       1   Parms: SM      L1      
 Computing Diagnostic #    198  SHI_MEff     Counter:       1   Parms: SM      L1      
 Computing Diagnostic #     30  UVEL         Counter:       1   Parms: UUR     MR      
           Vector  Mate for  UVEL         Diagnostic #     31  VVEL     exists 
 Computing Diagnostic #     31  VVEL         Counter:       1   Parms: VVR     MR      
           Vector  Mate for  VVEL         Diagnostic #     30  UVEL     exists 
 Computing Diagnostic #     32  WVEL         Counter:       1   Parms: WM      LR      
 Computing Diagnostic #     26  THETA        Counter:       1   Parms: SMR     MR      
 Computing Diagnostic #     27  SALT         Counter:       1   Parms: SMR     MR      
 Computing Diagnostic #     64  RHOAnoma     Counter:       1   Parms: SMR     MR      
 Computing Diagnostic #     78  CONVADJ      Counter:       1   Parms: SMR     LR      
 Computing Diagnostic #    199  SI_Uvel      Counter:       1   Parms: UZ      L1      
 Computing Diagnostic #    200  SI_Vvel      Counter:       1   Parms: VZ      L1      
 Computing Diagnostic #    201  SI_Thick     Counter:       1   Parms: SM      L1      
 Computing Diagnostic #    204  SI_hmask     Counter:       1   Parms: SM      L1      
 Computing Diagnostic #    203  SI_float     Counter:       1   Parms: SM      L1      
(PID.TID 0000.0001) %CHECKPOINT      8652 ckptA
(PID.TID 0000.0001)   Seconds in section "ALL                    [THE_MODEL_MAIN]":
(PID.TID 0000.0001)           User time:    12.01999950408936
(PID.TID 0000.0001)         System time:   0.3899999763816595
(PID.TID 0000.0001)     Wall clock time:    13.89902806282043
(PID.TID 0000.0001)          No. starts:            1
(PID.TID 0000.0001)           No. stops:            1
(PID.TID 0000.0001)   Seconds in section "INITIALISE_FIXED       [THE_MODEL_MAIN]":
(PID.TID 0000.0001)           User time:   7.9999998211860657E-002
(PID.TID 0000.0001)         System time:   6.0000000521540642E-002
(PID.TID 0000.0001)     Wall clock time:   0.4519901275634766
(PID.TID 0000.0001)          No. starts:            1
(PID.TID 0000.0001)           No. stops:            1
(PID.TID 0000.0001)   Seconds in section "THE_MAIN_LOOP          [THE_MODEL_MAIN]":
(PID.TID 0000.0001)           User time:    11.93999950587749
(PID.TID 0000.0001)         System time:   0.3299999758601189
(PID.TID 0000.0001)     Wall clock time:    13.44697403907776
(PID.TID 0000.0001)          No. starts:            1
(PID.TID 0000.0001)           No. stops:            1
(PID.TID 0000.0001)   Seconds in section "INITIALISE_VARIA    [THE_MAIN_LOOP]":
(PID.TID 0000.0001)           User time:   0.1599999964237213
(PID.TID 0000.0001)         System time:   7.0000000298023224E-002
(PID.TID 0000.0001)     Wall clock time:    1.081596136093140
(PID.TID 0000.0001)          No. starts:            1
(PID.TID 0000.0001)           No. stops:            1
(PID.TID 0000.0001)   Seconds in section "MAIN LOOP           [THE_MAIN_LOOP]":
(PID.TID 0000.0001)           User time:    11.77999950945377
(PID.TID 0000.0001)         System time:   0.2599999755620956
(PID.TID 0000.0001)     Wall clock time:    12.36532616615295
(PID.TID 0000.0001)          No. starts:            1
(PID.TID 0000.0001)           No. stops:            1
(PID.TID 0000.0001)   Seconds in section "MAIN_DO_LOOP        [THE_MAIN_LOOP]":
(PID.TID 0000.0001)           User time:    11.77999950945377
(PID.TID 0000.0001)         System time:   0.2599999755620956
(PID.TID 0000.0001)     Wall clock time:    12.36510825157166
(PID.TID 0000.0001)          No. starts:           12
(PID.TID 0000.0001)           No. stops:           12
(PID.TID 0000.0001)   Seconds in section "FORWARD_STEP        [MAIN_DO_LOOP]":
(PID.TID 0000.0001)           User time:    11.77999950945377
(PID.TID 0000.0001)         System time:   0.2499999701976776
(PID.TID 0000.0001)     Wall clock time:    12.36470293998718
(PID.TID 0000.0001)          No. starts:           12
(PID.TID 0000.0001)           No. stops:           12
(PID.TID 0000.0001)   Seconds in section "SHELFICE_REMESHING     [FORWARD_STEP]":
(PID.TID 0000.0001)           User time:   0.1100001335144043
(PID.TID 0000.0001)         System time:    0.000000000000000
(PID.TID 0000.0001)     Wall clock time:   0.1132540702819824
(PID.TID 0000.0001)          No. starts:           12
(PID.TID 0000.0001)           No. stops:           12
(PID.TID 0000.0001)   Seconds in section "DO_STATEVARS_DIAGS  [FORWARD_STEP]":
(PID.TID 0000.0001)           User time:   8.0000638961791992E-002
(PID.TID 0000.0001)         System time:    0.000000000000000
(PID.TID 0000.0001)     Wall clock time:   9.1829299926757812E-002
(PID.TID 0000.0001)          No. starts:           36
(PID.TID 0000.0001)           No. stops:           36
(PID.TID 0000.0001)   Seconds in section "LOAD_FIELDS_DRIVER  [FORWARD_STEP]":
(PID.TID 0000.0001)           User time:    0.000000000000000
(PID.TID 0000.0001)         System time:    0.000000000000000
(PID.TID 0000.0001)     Wall clock time:   9.0456008911132812E-004
(PID.TID 0000.0001)          No. starts:           12
(PID.TID 0000.0001)           No. stops:           12
(PID.TID 0000.0001)   Seconds in section "EXTERNAL_FLDS_LOAD [LOAD_FLDS_DRIVER]":
(PID.TID 0000.0001)           User time:    0.000000000000000
(PID.TID 0000.0001)         System time:    0.000000000000000
(PID.TID 0000.0001)     Wall clock time:   3.0326843261718750E-004
(PID.TID 0000.0001)          No. starts:           12
(PID.TID 0000.0001)           No. stops:           12
(PID.TID 0000.0001)   Seconds in section "DO_ATMOSPHERIC_PHYS [FORWARD_STEP]":
(PID.TID 0000.0001)           User time:    0.000000000000000
(PID.TID 0000.0001)         System time:    0.000000000000000
(PID.TID 0000.0001)     Wall clock time:   2.8395652770996094E-004
(PID.TID 0000.0001)          No. starts:           12
(PID.TID 0000.0001)           No. stops:           12
(PID.TID 0000.0001)   Seconds in section "DO_OCEANIC_PHYS     [FORWARD_STEP]":
(PID.TID 0000.0001)           User time:    1.749998584389687
(PID.TID 0000.0001)         System time:    0.000000000000000
(PID.TID 0000.0001)     Wall clock time:    1.742554903030396
(PID.TID 0000.0001)          No. starts:           12
(PID.TID 0000.0001)           No. stops:           12
(PID.TID 0000.0001)   Seconds in section "SHELFICE_THERMODYNAMICS [DO_OCEANIC_PHYS]":
(PID.TID 0000.0001)           User time:   2.0000219345092773E-002
(PID.TID 0000.0001)         System time:    0.000000000000000
(PID.TID 0000.0001)     Wall clock time:   1.1866092681884766E-002
(PID.TID 0000.0001)          No. starts:           12
(PID.TID 0000.0001)           No. stops:           12
(PID.TID 0000.0001)   Seconds in section "STREAMICE_TIMESTEP [FORWARD_STEP]":
(PID.TID 0000.0001)           User time:   0.1999999880790710
(PID.TID 0000.0001)         System time:    0.000000000000000
(PID.TID 0000.0001)     Wall clock time:   0.1942703723907471
(PID.TID 0000.0001)          No. starts:           12
(PID.TID 0000.0001)           No. stops:           12
(PID.TID 0000.0001)   Seconds in section "STREAMICE_VEL_SOLVE":
(PID.TID 0000.0001)           User time:   0.1800000071525574
(PID.TID 0000.0001)         System time:    0.000000000000000
(PID.TID 0000.0001)     Wall clock time:   0.1836240291595459
(PID.TID 0000.0001)          No. starts:            1
(PID.TID 0000.0001)           No. stops:            1
(PID.TID 0000.0001)   Seconds in section "STREAMICE_CG_SOLVE":
(PID.TID 0000.0001)           User time:   0.1200000345706940
(PID.TID 0000.0001)         System time:    0.000000000000000
(PID.TID 0000.0001)     Wall clock time:   0.1207389831542969
(PID.TID 0000.0001)          No. starts:            1
(PID.TID 0000.0001)           No. stops:            1
(PID.TID 0000.0001)   Seconds in section "STREAMICE_ADVECT_THICKNESS":
(PID.TID 0000.0001)           User time:   1.9999980926513672E-002
(PID.TID 0000.0001)         System time:    0.000000000000000
(PID.TID 0000.0001)     Wall clock time:   5.4249763488769531E-003
(PID.TID 0000.0001)          No. starts:           12
(PID.TID 0000.0001)           No. stops:           12
(PID.TID 0000.0001)   Seconds in section "DYNAMICS            [FORWARD_STEP]":
(PID.TID 0000.0001)           User time:    3.590001404285431
(PID.TID 0000.0001)         System time:   9.9999904632568359E-003
(PID.TID 0000.0001)     Wall clock time:    3.607323646545410
(PID.TID 0000.0001)          No. starts:           12
(PID.TID 0000.0001)           No. stops:           12
(PID.TID 0000.0001)   Seconds in section "UPDATE_SURF_DR      [FORWARD_STEP]":
(PID.TID 0000.0001)           User time:    0.000000000000000
(PID.TID 0000.0001)         System time:    0.000000000000000
(PID.TID 0000.0001)     Wall clock time:   2.1383762359619141E-003
(PID.TID 0000.0001)          No. starts:           12
(PID.TID 0000.0001)           No. stops:           12
(PID.TID 0000.0001)   Seconds in section "UPDATE_CG2D         [FORWARD_STEP]":
(PID.TID 0000.0001)           User time:   1.9999742507934570E-002
(PID.TID 0000.0001)         System time:    0.000000000000000
(PID.TID 0000.0001)     Wall clock time:   3.3208847045898438E-002
(PID.TID 0000.0001)          No. starts:           12
(PID.TID 0000.0001)           No. stops:           12
(PID.TID 0000.0001)   Seconds in section "SOLVE_FOR_PRESSURE  [FORWARD_STEP]":
(PID.TID 0000.0001)           User time:   0.1700007915496826
(PID.TID 0000.0001)         System time:    0.000000000000000
(PID.TID 0000.0001)     Wall clock time:   0.1636021137237549
(PID.TID 0000.0001)          No. starts:           12
(PID.TID 0000.0001)           No. stops:           12
(PID.TID 0000.0001)   Seconds in section "MOM_CORRECTION_STEP [FORWARD_STEP]":
(PID.TID 0000.0001)           User time:   6.9999098777770996E-002
(PID.TID 0000.0001)         System time:    0.000000000000000
(PID.TID 0000.0001)     Wall clock time:   6.1725378036499023E-002
(PID.TID 0000.0001)          No. starts:           12
(PID.TID 0000.0001)           No. stops:           12
(PID.TID 0000.0001)   Seconds in section "INTEGR_CONTINUITY   [FORWARD_STEP]":
(PID.TID 0000.0001)           User time:   0.1599996089935303
(PID.TID 0000.0001)         System time:    0.000000000000000
(PID.TID 0000.0001)     Wall clock time:   0.1611537933349609
(PID.TID 0000.0001)          No. starts:           12
(PID.TID 0000.0001)           No. stops:           12
(PID.TID 0000.0001)   Seconds in section "CALC_SURF_DR      [FORWARD_STEP]":
(PID.TID 0000.0001)           User time:   1.0000228881835938E-002
(PID.TID 0000.0001)         System time:    0.000000000000000
(PID.TID 0000.0001)     Wall clock time:   7.0858001708984375E-003
(PID.TID 0000.0001)          No. starts:           12
(PID.TID 0000.0001)           No. stops:           12
(PID.TID 0000.0001)   Seconds in section "BLOCKING_EXCHANGES  [FORWARD_STEP]":
(PID.TID 0000.0001)           User time:   0.2100007534027100
(PID.TID 0000.0001)         System time:    0.000000000000000
(PID.TID 0000.0001)     Wall clock time:   0.2087295055389404
(PID.TID 0000.0001)          No. starts:           24
(PID.TID 0000.0001)           No. stops:           24
(PID.TID 0000.0001)   Seconds in section "THERMODYNAMICS      [FORWARD_STEP]":
(PID.TID 0000.0001)           User time:    3.249998688697815
(PID.TID 0000.0001)         System time:   3.0000001192092896E-002
(PID.TID 0000.0001)     Wall clock time:    3.278277635574341
(PID.TID 0000.0001)          No. starts:           12
(PID.TID 0000.0001)           No. stops:           12
(PID.TID 0000.0001)   Seconds in section "TRC_CORRECTION_STEP [FORWARD_STEP]":
(PID.TID 0000.0001)           User time:    1.180000662803650
(PID.TID 0000.0001)         System time:    0.000000000000000
(PID.TID 0000.0001)     Wall clock time:    1.171935796737671
(PID.TID 0000.0001)          No. starts:           12
(PID.TID 0000.0001)           No. stops:           12
(PID.TID 0000.0001)   Seconds in section "MONITOR             [FORWARD_STEP]":
(PID.TID 0000.0001)           User time:   0.3999991416931152
(PID.TID 0000.0001)         System time:    0.000000000000000
(PID.TID 0000.0001)     Wall clock time:   0.3941965103149414
(PID.TID 0000.0001)          No. starts:           12
(PID.TID 0000.0001)           No. stops:           12
(PID.TID 0000.0001)   Seconds in section "DO_THE_MODEL_IO     [FORWARD_STEP]":
(PID.TID 0000.0001)           User time:   0.5500003099441528
(PID.TID 0000.0001)         System time:   0.1999999880790710
(PID.TID 0000.0001)     Wall clock time:    1.039096117019653
(PID.TID 0000.0001)          No. starts:           12
(PID.TID 0000.0001)           No. stops:           12
(PID.TID 0000.0001)   Seconds in section "DO_WRITE_PICKUP     [FORWARD_STEP]":
(PID.TID 0000.0001)           User time:   2.9999732971191406E-002
(PID.TID 0000.0001)         System time:   9.9999904632568359E-003
(PID.TID 0000.0001)     Wall clock time:   8.7955236434936523E-002
(PID.TID 0000.0001)          No. starts:           12
(PID.TID 0000.0001)           No. stops:           12
(PID.TID 0000.0001) // ======================================================
(PID.TID 0000.0001) // Tile <-> Tile communication statistics
(PID.TID 0000.0001) // ======================================================
(PID.TID 0000.0001) // o Tile number: 000001
(PID.TID 0000.0001) //         No. X exchanges =              0
(PID.TID 0000.0001) //            Max. X spins =              0
(PID.TID 0000.0001) //            Min. X spins =     1000000000
(PID.TID 0000.0001) //          Total. X spins =              0
(PID.TID 0000.0001) //            Avg. X spins =       0.00E+00
(PID.TID 0000.0001) //         No. Y exchanges =              0
(PID.TID 0000.0001) //            Max. Y spins =              0
(PID.TID 0000.0001) //            Min. Y spins =     1000000000
(PID.TID 0000.0001) //          Total. Y spins =              0
(PID.TID 0000.0001) //            Avg. Y spins =       0.00E+00
(PID.TID 0000.0001) // o Thread number: 000001
(PID.TID 0000.0001) //            No. barriers =          43592
(PID.TID 0000.0001) //      Max. barrier spins =              1
(PID.TID 0000.0001) //      Min. barrier spins =              1
(PID.TID 0000.0001) //     Total barrier spins =          43592
(PID.TID 0000.0001) //      Avg. barrier spins =       1.00E+00
PROGRAM MAIN: Execution ended Normally
