(PID.TID 0000.0001) 
(PID.TID 0000.0001) // ======================================================
(PID.TID 0000.0001) //                      MITgcm UV
(PID.TID 0000.0001) //                      =========
(PID.TID 0000.0001) // ======================================================
(PID.TID 0000.0001) // execution environment starting up...
(PID.TID 0000.0001) 
(PID.TID 0000.0001) // MITgcmUV version:  checkpoint67x
(PID.TID 0000.0001) // Build user:        jm_c
(PID.TID 0000.0001) // Build host:        villon
(PID.TID 0000.0001) // Build date:        Thu Apr 15 12:19:34 EDT 2021
(PID.TID 0000.0001) 
(PID.TID 0000.0001) // =======================================================
(PID.TID 0000.0001) // Execution Environment parameter file "eedata"
(PID.TID 0000.0001) // =======================================================
(PID.TID 0000.0001) ># Example "eedata" file
(PID.TID 0000.0001) ># Lines beginning "#" are comments
(PID.TID 0000.0001) >#  nTx      :: No. threads per process in X
(PID.TID 0000.0001) >#  nTy      :: No. threads per process in Y
(PID.TID 0000.0001) ># debugMode :: print debug msg (sequence of S/R calls)
(PID.TID 0000.0001) > &EEPARMS
(PID.TID 0000.0001) > /
(PID.TID 0000.0001) ># Note: Some systems use & as the namelist terminator (as shown here).
(PID.TID 0000.0001) >#       Other systems use a / character.
(PID.TID 0000.0001) 
(PID.TID 0000.0001) // =======================================================
(PID.TID 0000.0001) // Computational Grid Specification ( see files "SIZE.h" )
(PID.TID 0000.0001) //                                  ( and "eedata"       )
(PID.TID 0000.0001) // =======================================================
(PID.TID 0000.0001)      nPx =    1 ; /* No. processes in X */
(PID.TID 0000.0001)      nPy =    1 ; /* No. processes in Y */
(PID.TID 0000.0001)      nSx =    1 ; /* No. tiles in X per process */
(PID.TID 0000.0001)      nSy =    1 ; /* No. tiles in Y per process */
(PID.TID 0000.0001)      sNx =    3 ; /* Tile size in X */
(PID.TID 0000.0001)      sNy =  200 ; /* Tile size in Y */
(PID.TID 0000.0001)      OLx =    3 ; /* Tile overlap distance in X */
(PID.TID 0000.0001)      OLy =    3 ; /* Tile overlap distance in Y */
(PID.TID 0000.0001)      nTx =    1 ; /* No. threads in X per process */
(PID.TID 0000.0001)      nTy =    1 ; /* No. threads in Y per process */
(PID.TID 0000.0001)       Nr =   90 ; /* No. levels in the vertical   */
(PID.TID 0000.0001)       Nx =    3 ; /* Total domain size in X ( = nPx*nSx*sNx ) */
(PID.TID 0000.0001)       Ny =  200 ; /* Total domain size in Y ( = nPy*nSy*sNy ) */
(PID.TID 0000.0001)   nTiles =    1 ; /* Total no. tiles per process ( = nSx*nSy ) */
(PID.TID 0000.0001)   nProcs =    1 ; /* Total no. processes ( = nPx*nPy ) */
(PID.TID 0000.0001) nThreads =    1 ; /* Total no. threads per process ( = nTx*nTy ) */
(PID.TID 0000.0001) usingMPI =    F ; /* Flag used to control whether MPI is in use */
(PID.TID 0000.0001)                   /*  note: To execute a program with MPI calls */
(PID.TID 0000.0001)                   /*  it must be launched appropriately e.g     */
(PID.TID 0000.0001)                   /*  "mpirun -np 64 ......"                    */
(PID.TID 0000.0001) useCoupler=   F ; /* Flag used to control communications with   */
(PID.TID 0000.0001)                   /*  other model components, through a coupler */
(PID.TID 0000.0001) useNest2W_parent =    F ;/* Control 2-W Nesting comm */
(PID.TID 0000.0001) useNest2W_child  =    F ;/* Control 2-W Nesting comm */
(PID.TID 0000.0001) debugMode =    F ; /* print debug msg. (sequence of S/R calls)  */
(PID.TID 0000.0001) printMapIncludesZeros=    F ; /* print zeros in Std.Output maps */
(PID.TID 0000.0001) maxLengthPrt1D=   65 /* maxLength of 1D array printed to StdOut */
(PID.TID 0000.0001) 
(PID.TID 0000.0001) // ======================================================
(PID.TID 0000.0001) // Mapping of tiles to threads
(PID.TID 0000.0001) // ======================================================
(PID.TID 0000.0001) // -o- Thread   1, tiles (   1:   1,   1:   1)
(PID.TID 0000.0001) 
(PID.TID 0000.0001) // ======================================================
(PID.TID 0000.0001) // Tile <-> Tile connectvity table
(PID.TID 0000.0001) // ======================================================
(PID.TID 0000.0001) // Tile number: 000001 (process no. = 000000)
(PID.TID 0000.0001) //        WEST: Tile = 000001, Process = 000000, Comm = put
(PID.TID 0000.0001) //                bi = 000001, bj = 000001
(PID.TID 0000.0001) //        EAST: Tile = 000001, Process = 000000, Comm = put
(PID.TID 0000.0001) //                bi = 000001, bj = 000001
(PID.TID 0000.0001) //       SOUTH: Tile = 000001, Process = 000000, Comm = put
(PID.TID 0000.0001) //                bi = 000001, bj = 000001
(PID.TID 0000.0001) //       NORTH: Tile = 000001, Process = 000000, Comm = put
(PID.TID 0000.0001) //                bi = 000001, bj = 000001
(PID.TID 0000.0001) 
(PID.TID 0000.0001)  INI_PARMS: opening model parameter file "data"
(PID.TID 0000.0001)  OPEN_COPY_DATA_FILE: opening file data
(PID.TID 0000.0001) // =======================================================
(PID.TID 0000.0001) // Parameter file "data"
(PID.TID 0000.0001) // =======================================================
(PID.TID 0000.0001) ># ====================
(PID.TID 0000.0001) ># | Model parameters |
(PID.TID 0000.0001) ># ====================
(PID.TID 0000.0001) >#
(PID.TID 0000.0001) ># Continuous equation parameters
(PID.TID 0000.0001) > &PARM01
(PID.TID 0000.0001) > tRef = 90*-1.9,
(PID.TID 0000.0001) > sRef = 90*34.4,
(PID.TID 0000.0001) > viscAr=1.E-3,
(PID.TID 0000.0001) > viscAhGrid=0.2,
(PID.TID 0000.0001) > viscA4Grid=0.02,
(PID.TID 0000.0001) > no_slip_sides=.FALSE.,
(PID.TID 0000.0001) > no_slip_bottom=.FALSE.,
(PID.TID 0000.0001) > diffKhT= 100.0,
(PID.TID 0000.0001) > diffKrT=5.E-5,
(PID.TID 0000.0001) > diffKhS= 100.0,
(PID.TID 0000.0001) > diffKrS=5.E-5,
(PID.TID 0000.0001) > bottomDragQuadratic=2.5E-3,
(PID.TID 0000.0001) > staggerTimestep = .TRUE.,
(PID.TID 0000.0001) > tempAdvScheme=30,
(PID.TID 0000.0001) > saltAdvScheme=30,
(PID.TID 0000.0001) > vectorInvariantMomentum = .TRUE.,
(PID.TID 0000.0001) >### momImplVertAdv=.TRUE.,
(PID.TID 0000.0001) > tempImplVertAdv=.TRUE.,
(PID.TID 0000.0001) > saltImplVertAdv=.TRUE.,
(PID.TID 0000.0001) >#ivdc_kappa = 0.005.,
(PID.TID 0000.0001) > implicitDiffusion = .TRUE.,
(PID.TID 0000.0001) > implicitViscosity = .TRUE.,
(PID.TID 0000.0001) > implicitFreeSurface=.TRUE.,
(PID.TID 0000.0001) > useRealFreshWaterFlux= .TRUE.,
(PID.TID 0000.0001) > exactConserv=.TRUE.,
(PID.TID 0000.0001) > nonlinFreeSurf=4,
(PID.TID 0000.0001) > hFacInf=0.2,
(PID.TID 0000.0001) > hFacSup=2.0,
(PID.TID 0000.0001) > hFacMin=0.2,
(PID.TID 0000.0001) >#-
(PID.TID 0000.0001) > eosType='JMD95Z',
(PID.TID 0000.0001) > HeatCapacity_Cp= 3974.0,
(PID.TID 0000.0001) > rhoConst=1000.,
(PID.TID 0000.0001) > gravity=9.81,
(PID.TID 0000.0001) >#- fCori is used in shelfice_thermodynamics.F when SHELFICEuseGammaFrict=T
(PID.TID 0000.0001) >#  so that useCoriolis=F is not enough to cancel completly rotation
(PID.TID 0000.0001) > useCoriolis=.FALSE.,
(PID.TID 0000.0001) > selectCoriMap = 0,
(PID.TID 0000.0001) > f0 = 0.0,
(PID.TID 0000.0001) >#-
(PID.TID 0000.0001) > readBinaryPrec=64,
(PID.TID 0000.0001) >#writeBinaryPrec=64,
(PID.TID 0000.0001) > useSingleCpuIO=.TRUE.,
(PID.TID 0000.0001) > globalFiles=.TRUE.,
(PID.TID 0000.0001) > plotLevel = 0,
(PID.TID 0000.0001) > /
(PID.TID 0000.0001) >
(PID.TID 0000.0001) ># Elliptic solver parameters
(PID.TID 0000.0001) > &PARM02
(PID.TID 0000.0001) > cg2dMaxIters=300,
(PID.TID 0000.0001) > cg2dTargetResidual=1.E-11,
(PID.TID 0000.0001) > /
(PID.TID 0000.0001) >
(PID.TID 0000.0001) ># Time stepping parameters
(PID.TID 0000.0001) > &PARM03
(PID.TID 0000.0001) > nIter0=11395,
(PID.TID 0000.0001) > nTimeSteps=20,
(PID.TID 0000.0001) > deltaT= 300.,
(PID.TID 0000.0001) > forcing_In_AB=.FALSE.,
(PID.TID 0000.0001) > abEps=0.1,
(PID.TID 0000.0001) > cAdjFreq = -1.,
(PID.TID 0000.0001) > pChkptFreq=31104000.,
(PID.TID 0000.0001) > chkptFreq=  7776000.,
(PID.TID 0000.0001) > dumpFreq = 3000.,
(PID.TID 0000.0001) > monitorSelect=1,
(PID.TID 0000.0001) > monitorFreq= 1.,
(PID.TID 0000.0001) > /
(PID.TID 0000.0001) >
(PID.TID 0000.0001) ># Gridding parameters
(PID.TID 0000.0001) > &PARM04
(PID.TID 0000.0001) > useMin4hFacEdges=.TRUE.,
(PID.TID 0000.0001) > usingSphericalPolarGrid=.TRUE.,
(PID.TID 0000.0001) > delR=90*10.,
(PID.TID 0000.0001) > delX=3*0.125,
(PID.TID 0000.0001) > delY=200*0.0078125,
(PID.TID 0000.0001) ># delYFile='dlat.bin',
(PID.TID 0000.0001) > xgOrigin = -105.5,
(PID.TID 0000.0001) > ygOrigin =  -75.4457,
(PID.TID 0000.0001) > /
(PID.TID 0000.0001) >
(PID.TID 0000.0001) ># Input datasets
(PID.TID 0000.0001) > &PARM05
(PID.TID 0000.0001) > bathyFile='bathy.box',
(PID.TID 0000.0001) > hydrogThetaFile='theta.init',	
(PID.TID 0000.0001) > hydrogSaltFile='salt.init',
(PID.TID 0000.0001) > pSurfInitFile='etainit.round.bin',
(PID.TID 0000.0001) > /
(PID.TID 0000.0001) 
(PID.TID 0000.0001)  INI_PARMS ; starts to read PARM01
(PID.TID 0000.0001)  INI_PARMS ; read PARM01 : OK
(PID.TID 0000.0001)  INI_PARMS ; starts to read PARM02
(PID.TID 0000.0001)  INI_PARMS ; read PARM02 : OK
(PID.TID 0000.0001)  INI_PARMS ; starts to read PARM03
(PID.TID 0000.0001)  INI_PARMS ; read PARM03 : OK
(PID.TID 0000.0001)  INI_PARMS ; starts to read PARM04
(PID.TID 0000.0001)  INI_PARMS ; read PARM04 : OK
(PID.TID 0000.0001)  INI_PARMS ; starts to read PARM05
(PID.TID 0000.0001)  INI_PARMS ; read PARM05 : OK
(PID.TID 0000.0001)  INI_PARMS: finished reading file "data"
(PID.TID 0000.0001)  PACKAGES_BOOT: opening data.pkg
(PID.TID 0000.0001)  OPEN_COPY_DATA_FILE: opening file data.pkg
(PID.TID 0000.0001) // =======================================================
(PID.TID 0000.0001) // Parameter file "data.pkg"
(PID.TID 0000.0001) // =======================================================
(PID.TID 0000.0001) ># Packages
(PID.TID 0000.0001) > &PACKAGES
(PID.TID 0000.0001) > useOBCS      = .TRUE.,
(PID.TID 0000.0001) > useShelfIce  = .TRUE.,
(PID.TID 0000.0001) > useStreamIce = .TRUE.,
(PID.TID 0000.0001) > useDiagnostics=.TRUE.,
(PID.TID 0000.0001) > /
(PID.TID 0000.0001) 
(PID.TID 0000.0001)  PACKAGES_BOOT: finished reading data.pkg
(PID.TID 0000.0001)  PACKAGES_BOOT: On/Off package Summary
 --------  pkgs with a standard "usePKG" On/Off switch in "data.pkg":  --------
 pkg/obcs                 compiled   and   used ( useOBCS                  = T )
 pkg/shelfice             compiled   and   used ( useShelfIce              = T )
 pkg/streamice            compiled   and   used ( useStreamIce             = T )
 pkg/diagnostics          compiled   and   used ( useDiagnostics           = T )
 -------- pkgs without standard "usePKG" On/Off switch in "data.pkg":  --------
 pkg/generic_advdiff      compiled   and   used ( useGAD                   = T )
 pkg/mom_common           compiled   and   used ( momStepping              = T )
 pkg/mom_vecinv           compiled   and   used ( +vectorInvariantMomentum = T )
 pkg/mom_fluxform         compiled but not used ( & not vectorInvariantMom = F )
 pkg/monitor              compiled   and   used ( monitorFreq > 0.         = T )
 pkg/debug                compiled but not used ( debugMode                = F )
 pkg/rw                   compiled   and   used
 pkg/mdsio                compiled   and   used
(PID.TID 0000.0001)  PACKAGES_BOOT: End of package Summary
(PID.TID 0000.0001) 
(PID.TID 0000.0001)  OBCS_READPARMS: opening data.obcs
(PID.TID 0000.0001)  OPEN_COPY_DATA_FILE: opening file data.obcs
(PID.TID 0000.0001) // =======================================================
(PID.TID 0000.0001) // Parameter file "data.obcs"
(PID.TID 0000.0001) // =======================================================
(PID.TID 0000.0001) ># Open-boundaries
(PID.TID 0000.0001) > &OBCS_PARM01
(PID.TID 0000.0001) > OB_Jnorth=3*200,
(PID.TID 0000.0001) > useOBCSprescribe=.TRUE.,
(PID.TID 0000.0001) > useOBCSsponge=.FALSE.,
(PID.TID 0000.0001) ># OBWuFile='uvel.obw',
(PID.TID 0000.0001) > OBNvFile='vvel.obw',
(PID.TID 0000.0001) > OBNtFile='theta.obw',
(PID.TID 0000.0001) > OBNsFile='salt.obw',
(PID.TID 0000.0001) > useOrlanskiNorth=.FALSE.,
(PID.TID 0000.0001) > useOBCSbalance=.TRUE.,
(PID.TID 0000.0001) > OBCS_balanceFacN=1.,
(PID.TID 0000.0001) > /
(PID.TID 0000.0001) >
(PID.TID 0000.0001) ># Orlanski parameters
(PID.TID 0000.0001) > &OBCS_PARM02
(PID.TID 0000.0001) >#Cmax=0.45,
(PID.TID 0000.0001) >#cVelTimeScale=1000.,
(PID.TID 0000.0001) > /
(PID.TID 0000.0001) >
(PID.TID 0000.0001) ># Sponge layer parameters
(PID.TID 0000.0001) > &OBCS_PARM03
(PID.TID 0000.0001) >#spongeThickness = 20,
(PID.TID 0000.0001) >#Vrelaxobcsbound = 864000.,
(PID.TID 0000.0001) >#Urelaxobcsbound = 864000.,
(PID.TID 0000.0001) > /
(PID.TID 0000.0001) 
(PID.TID 0000.0001)  OBCS_READPARMS: finished reading data.obcs
(PID.TID 0000.0001)  OB_indexUnset = /* unset OB index value (i.e. no OB) */
(PID.TID 0000.0001)                       0
(PID.TID 0000.0001)     ;
(PID.TID 0000.0001)  Northern OB global indices : OB_Jnorth =
(PID.TID 0000.0001)     3 @      200                            /* I =  1:  3 */
(PID.TID 0000.0001)  Southern OB global indices : OB_Jsouth =
(PID.TID 0000.0001)     3 @        0                            /* I =  1:  3 */
(PID.TID 0000.0001)  Eastern  OB global indices : OB_Ieast =
(PID.TID 0000.0001)   200 @        0                            /* J =  1:200 */
(PID.TID 0000.0001)  Western  OB global indices : OB_Iwest =
(PID.TID 0000.0001)   200 @        0                            /* J =  1:200 */
(PID.TID 0000.0001) 
(PID.TID 0000.0001) STREAMICE_READPARMS: opening data.streamice
(PID.TID 0000.0001)  OPEN_COPY_DATA_FILE: opening file data.streamice
(PID.TID 0000.0001) // =======================================================
(PID.TID 0000.0001) // Parameter file "data.streamice"
(PID.TID 0000.0001) // =======================================================
(PID.TID 0000.0001) ># ====================================
(PID.TID 0000.0001) ># | Parameters for STREAMICE package |
(PID.TID 0000.0001) ># ====================================
(PID.TID 0000.0001) > &STREAMICE_PARM01
(PID.TID 0000.0001) > streamice_maxnliter_cpl = 1,
(PID.TID 0000.0001) > streamice_maxcgiter_cpl = 700,
(PID.TID 0000.0001) > STREAMICE_allow_cpl=.true.,
(PID.TID 0000.0001) > streamice_vel_update = 43200.,
(PID.TID 0000.0001) > streamice_density = 917.,
(PID.TID 0000.0001) > streamice_density_ocean_avg = 1028.,
(PID.TID 0000.0001) > B_glen_isothermal = 700.,
(PID.TID 0000.0001) > C_basal_fric_const = 5.,
(PID.TID 0000.0001) > n_glen = 3.0,
(PID.TID 0000.0001) > n_basal_friction = 1.,
(PID.TID 0000.0001) > streamice_diagnostic_only=.false.,
(PID.TID 0000.0001) > eps_glen_min = 1.0e-12,
(PID.TID 0000.0001) > eps_u_min = 1.0e-12,
(PID.TID 0000.0001) > streamice_cg_tol = 1.0e-6,
(PID.TID 0000.0001) > STREAMICE_lower_cg_tol = .true.,
(PID.TID 0000.0001) > streamice_nonlin_tol = .000001,
(PID.TID 0000.0001) > streamice_nonlin_tol_fp = .00000001,
(PID.TID 0000.0001) > streamice_max_cg_iter = 700,
(PID.TID 0000.0001) > streamice_max_nl_iter = 70,
(PID.TID 0000.0001) > STREAMICE_calve_to_mask = .false.,
(PID.TID 0000.0001) > streamice_CFL_factor = 0.5,
(PID.TID 0000.0001) > STREAMICE_dump_mdsio = .true.,
(PID.TID 0000.0001) > streamice_bg_surf_slope_x = 0.,
(PID.TID 0000.0001) > STREAMICEthickInit='FILE',
(PID.TID 0000.0001) > STREAMICEthickFile='h0.bin',
(PID.TID 0000.0001) > STREAMICEtopogFile='bathy.box',
(PID.TID 0000.0001) > STREAMICEuFaceBdryFile = 'ufacemask3.box',
(PID.TID 0000.0001) > STREAMICEvFaceBdryFile = 'vfacemask3.box',
(PID.TID 0000.0001) ># STREAMICEvMassFluxFile='vmassflux3.box',
(PID.TID 0000.0001) > STREAMICEvDirichValsFile='vdirich.box',
(PID.TID 0000.0001) > STREAMICEhmaskFile = 'hmask3.box',
(PID.TID 0000.0001) > STREAMICEHBCyFile = 'HBCy.box',
(PID.TID 0000.0001) > STREAMICEbasalTracConfig='UNIFORM',
(PID.TID 0000.0001) > STREAMICEGlenConstConfig='UNIFORM',
(PID.TID 0000.0001) > STREAMICE_chkfixedptconvergence=.true.,
(PID.TID 0000.0001) > STREAMICE_chkresidconvergence=.false.,
(PID.TID 0000.0001) > streamice_buttr_width=200.e3,
(PID.TID 0000.0001) > useStreamiceFlowlineButtr=.true.,
(PID.TID 0000.0001) > /
(PID.TID 0000.0001) >
(PID.TID 0000.0001) > &STREAMICE_PARM02
(PID.TID 0000.0001) > shelf_max_draft = 1300.0,
(PID.TID 0000.0001) > shelf_min_draft = 300.0,
(PID.TID 0000.0001) > shelf_edge_pos = 70.0e3,
(PID.TID 0000.0001) > shelf_slope_scale = 62.0e3,
(PID.TID 0000.0001) > shelf_flat_width = 20.0e3,
(PID.TID 0000.0001) > /
(PID.TID 0000.0001) >
(PID.TID 0000.0001) ># &STREAMICE_PARMPETSC
(PID.TID 0000.0001) ># PETSC_SOLVER_TYPE = 'CG',
(PID.TID 0000.0001) ># PETSC_PRECOND_TYPE = 'GAMG',
(PID.TID 0000.0001) ># &
(PID.TID 0000.0001) >
(PID.TID 0000.0001) > &STREAMICE_PARM03
(PID.TID 0000.0001) > min_x_noflow_north = -200.0,
(PID.TID 0000.0001) > max_x_noflow_north = 0.0,
(PID.TID 0000.0001) > min_x_noflow_south = -200.0,
(PID.TID 0000.0001) > max_x_noflow_south = 0.0,
(PID.TID 0000.0001) > min_y_noflow_WEST = 0.0,
(PID.TID 0000.0001) > max_y_noflow_WEST = 0.0,
(PID.TID 0000.0001) > min_y_noflow_EAST = -180.0,
(PID.TID 0000.0001) > max_y_noflow_EAST = 0.0,
(PID.TID 0000.0001) > min_x_noStress_NORTH = 0.0e3,
(PID.TID 0000.0001) > max_x_noStress_NORTH = 0.0e3,
(PID.TID 0000.0001) > min_x_noStress_SOUTH = 0.0e3,
(PID.TID 0000.0001) > max_x_noStress_SOUTH = 0.0e3,
(PID.TID 0000.0001) > min_y_noStress_WEST = -1.0,
(PID.TID 0000.0001) > max_y_noStress_WEST = -1.0,
(PID.TID 0000.0001) > min_y_noStress_EAST = -1.0,
(PID.TID 0000.0001) > max_y_noStress_EAST = -1.0,
(PID.TID 0000.0001) > min_x_FluxBdry_NORTH = -1.0,
(PID.TID 0000.0001) > max_x_FluxBdry_NORTH = -1.0,
(PID.TID 0000.0001) > min_x_FluxBdry_SOUTH = -1.0,
(PID.TID 0000.0001) > max_x_FluxBdry_SOUTH = -1.0,
(PID.TID 0000.0001) > min_y_FluxBdry_WEST = 0.0,
(PID.TID 0000.0001) > max_y_FluxBdry_WEST = 0.0,
(PID.TID 0000.0001) > min_y_FluxBdry_EAST = -180.0,
(PID.TID 0000.0001) > max_y_FluxBdry_EAST = 0.0,
(PID.TID 0000.0001) > min_x_Dirich_NORTH = -1.0,
(PID.TID 0000.0001) > max_x_Dirich_NORTH = -1.0,
(PID.TID 0000.0001) > min_x_Dirich_SOUTH = -1.0,
(PID.TID 0000.0001) > max_x_Dirich_SOUTH = -1.0,
(PID.TID 0000.0001) > min_y_Dirich_WEST = -1.0,
(PID.TID 0000.0001) > max_y_Dirich_WEST = -1.0,
(PID.TID 0000.0001) > min_y_Dirich_EAST = -1.0,
(PID.TID 0000.0001) > max_y_Dirich_EAST = -1.0,
(PID.TID 0000.0001) > min_x_CFBC_NORTH = -1.0,
(PID.TID 0000.0001) > max_x_CFBC_NORTH = -1.0,
(PID.TID 0000.0001) > min_x_CFBC_SOUTH = -1.0,
(PID.TID 0000.0001) > max_x_CFBC_SOUTH = -1.0,
(PID.TID 0000.0001) > min_y_CFBC_WEST = -180.0,
(PID.TID 0000.0001) > max_y_CFBC_WEST = 0.0,
(PID.TID 0000.0001) > min_y_CFBC_EAST = 0.0,
(PID.TID 0000.0001) > max_y_CFBC_EAST = 0.0e3,
(PID.TID 0000.0001) > flux_bdry_val_EAST =1.5e6,
(PID.TID 0000.0001) > STREAMICE_NS_periodic = .false.,
(PID.TID 0000.0001) > STREAMICE_EW_periodic = .false.,
(PID.TID 0000.0001) > /
(PID.TID 0000.0001) 
(PID.TID 0000.0001) STREAMICE_READPARMS: read first param block
(PID.TID 0000.0001) STREAMICE_READPARMS: read third param block
(PID.TID 0000.0001)  SHELFICE_READPARMS: opening data.shelfice
(PID.TID 0000.0001)  OPEN_COPY_DATA_FILE: opening file data.shelfice
(PID.TID 0000.0001) // =======================================================
(PID.TID 0000.0001) // Parameter file "data.shelfice"
(PID.TID 0000.0001) // =======================================================
(PID.TID 0000.0001) ># ===================================
(PID.TID 0000.0001) ># | Parameters for SHELFICE package |
(PID.TID 0000.0001) ># ===================================
(PID.TID 0000.0001) > &SHELFICE_PARM01
(PID.TID 0000.0001) > SHELFICEconserve   = .TRUE.,
(PID.TID 0000.0001) > SHELFICEboundaryLayer = .TRUE.,
(PID.TID 0000.0001) > SHI_withBL_realFWflux = .TRUE.,
(PID.TID 0000.0001) > SHI_withBL_uStarTopDz = .TRUE.,
(PID.TID 0000.0001) > SHELFICEuseGammaFrict = .TRUE.,
(PID.TID 0000.0001) > SHELFICEDragQuadratic = 0.0075,
(PID.TID 0000.0001) > shiCdrag = 0.0075,
(PID.TID 0000.0001) ># SHELFICEheatTransCoeff = 0.,
(PID.TID 0000.0001) ># SHELFICEsaltTransCoeff = 0.,
(PID.TID 0000.0001) > SHELFICEMassStepping = .TRUE.,
(PID.TID 0000.0001) > SHELFICEremeshFrequency = 3000.0,
(PID.TID 0000.0001) > SHELFICEsplitThreshold = 1.25,
(PID.TID 0000.0001) > SHELFICEmergeThreshold = 0.24,
(PID.TID 0000.0001) > SHELFICEtopoFile = 'shelftopo.round.bin',
(PID.TID 0000.0001) > SHELFICEmassFile = 'shelficemassinit.bin',
(PID.TID 0000.0001) > SHELFICEwriteState = .TRUE.,
(PID.TID 0000.0001) > /
(PID.TID 0000.0001) 
(PID.TID 0000.0001)  SHELFICE_READPARMS: finished reading data.shelfice
(PID.TID 0000.0001)  DIAGNOSTICS_READPARMS: opening data.diagnostics
(PID.TID 0000.0001)  OPEN_COPY_DATA_FILE: opening file data.diagnostics
(PID.TID 0000.0001) // =======================================================
(PID.TID 0000.0001) // Parameter file "data.diagnostics"
(PID.TID 0000.0001) // =======================================================
(PID.TID 0000.0001) ># Diagnostic Package Choices
(PID.TID 0000.0001) >#-----------------
(PID.TID 0000.0001) ># for each output-stream:
(PID.TID 0000.0001) >#  filename(n) : prefix of the output file name (only 8.c long) for outp.stream n
(PID.TID 0000.0001) >#  frequency(n):< 0 : write snap-shot output every |frequency| seconds
(PID.TID 0000.0001) >#               > 0 : write time-average output every frequency seconds
(PID.TID 0000.0001) >#  timePhase(n)     : write at time = timePhase + multiple of |frequency|
(PID.TID 0000.0001) >#  averagingFreq(n) : frequency (in s) for periodic averaging interval
(PID.TID 0000.0001) >#  averagingPhase(n): phase     (in s) for periodic averaging interval
(PID.TID 0000.0001) >#  repeatCycle(n)   : number of averaging intervals in 1 cycle
(PID.TID 0000.0001) >#  levels(:,n) : list of levels to write to file (Notes: declared as REAL)
(PID.TID 0000.0001) >#                 when this entry is missing, select all common levels of this list
(PID.TID 0000.0001) >#  fields(:,n) : list of diagnostics fields (8.c) (see "available_diagnostics.log"
(PID.TID 0000.0001) >#                 file for the list of all available diag. in this particular config)
(PID.TID 0000.0001) >#-----------------
(PID.TID 0000.0001) > &DIAGNOSTICS_LIST
(PID.TID 0000.0001) ># diag_mnc     = .FALSE.,
(PID.TID 0000.0001) ># dumpAtLast   = .TRUE.,
(PID.TID 0000.0001) >  fields(1:13,1) =
(PID.TID 0000.0001) >#       'ETAN    ','oceTAUX ','oceTAUY ',
(PID.TID 0000.0001) >#                 'oceQnet ','oceFWflx','MXLDEPTH',
(PID.TID 0000.0001) >                 'SHIfwFlx','SHIhtFlx','SHIgammT','SHIgammS',
(PID.TID 0000.0001) >                 'SHI_mass','SHIRshel',
(PID.TID 0000.0001) >                 'SI_Uvel ','SI_Vvel ','SI_Thick','SI_hmask',
(PID.TID 0000.0001) >                 'SI_float','SHIuStar'
(PID.TID 0000.0001) >#                'SHIuLocM','SHIvLocM','SHIwLocM','SHItLocM','SHIsLocM',
(PID.TID 0000.0001) >#		 'SHItLocB','SHIsLocB'
(PID.TID 0000.0001) >#                'SHIForcT','SHIForcS',
(PID.TID 0000.0001) >#                'surForcT','surForcS','TFLUX   ','SFLUX   ','oceFreez',
(PID.TID 0000.0001) >#                 'TRELAX  ','SRELAX  ',
(PID.TID 0000.0001) >#                'GM_VisbK',
(PID.TID 0000.0001) >#  fields(1,1)='ETAN'
(PID.TID 0000.0001) >   filename(1) = 'surfDiag',
(PID.TID 0000.0001) >  frequency(1) =  300,
(PID.TID 0000.0001) ># fields(1:7,2) = 'UVEL    ','VVEL    ','WVEL    ',
(PID.TID 0000.0001) >#                 'THETA   ','SALT    ','RHOAnoma', 'CONVADJ',
(PID.TID 0000.0001) >#   filename(2) = 'dynDiag',
(PID.TID 0000.0001) >#  frequency(2) =  2592000.,
(PID.TID 0000.0001) ># fields(1:5,3) = 'SI_Uvel ','SI_Vvel ','SI_Thick','SI_hmask','SI_float',
(PID.TID 0000.0001) >#   filename(3) = 'streamice',
(PID.TID 0000.0001) >#  frequency(3) =  2592000.,
(PID.TID 0000.0001) > /
(PID.TID 0000.0001) >
(PID.TID 0000.0001) ># Parameter for Diagnostics of per level statistics:
(PID.TID 0000.0001) >#-----------------
(PID.TID 0000.0001) ># for each output-stream:
(PID.TID 0000.0001) >#  stat_fname(n) : prefix of the output file name (only 8.c long) for outp.stream n
(PID.TID 0000.0001) >#  stat_freq(n):< 0 : write snap-shot output every |stat_freq| seconds
(PID.TID 0000.0001) >#               > 0 : write time-average output every stat_freq seconds
(PID.TID 0000.0001) >#  stat_phase(n)    : write at time = stat_phase + multiple of |stat_freq|
(PID.TID 0000.0001) >#  stat_region(:,n) : list of "regions" (default: 1 region only=global)
(PID.TID 0000.0001) >#  stat_fields(:,n) : list of diagnostics fields (8.c) (see "available_diagnostics.log"
(PID.TID 0000.0001) >#                 file for the list of all available diag. in this particular config)
(PID.TID 0000.0001) >#-----------------
(PID.TID 0000.0001) > &DIAG_STATIS_PARMS
(PID.TID 0000.0001) >#- regional mask: 3 lat. band: 1 : y <= -24 ; 2 : -24<y<24 ; 3 : 24 <= y
(PID.TID 0000.0001) ># diagSt_regMaskFile='regMask_lat24.bin',
(PID.TID 0000.0001) ># nSetRegMskFile=1,
(PID.TID 0000.0001) ># set_regMask(1)= 1,  1,  1,
(PID.TID 0000.0001) ># val_regMask(1)= 1., 2., 3.,
(PID.TID 0000.0001) >#---
(PID.TID 0000.0001) >#stat_fields(1,1)= 'ETAN    ','UVEL    ','VVEL    ','WVEL    ',
(PID.TID 0000.0001) >#                  'THETA   ','SALT    ','SIarea  ','SIheff  ',
(PID.TID 0000.0001) >#   stat_fname(1)= 'dynStDiag',
(PID.TID 0000.0001) >#    stat_freq(1)= 864000.,
(PID.TID 0000.0001) > /
(PID.TID 0000.0001) >
(PID.TID 0000.0001) 
(PID.TID 0000.0001) S/R DIAGNOSTICS_READPARMS, read namelist "diagnostics_list": start
(PID.TID 0000.0001) S/R DIAGNOSTICS_READPARMS, read namelist "diagnostics_list": OK
(PID.TID 0000.0001) S/R DIAGNOSTICS_READPARMS, read namelist "DIAG_STATIS_PARMS": start
(PID.TID 0000.0001) S/R DIAGNOSTICS_READPARMS, read namelist "DIAG_STATIS_PARMS": OK
(PID.TID 0000.0001)  DIAGNOSTICS_READPARMS: global parameter summary:
(PID.TID 0000.0001)  dumpAtLast = /* always write time-ave diags at the end */
(PID.TID 0000.0001)                   F
(PID.TID 0000.0001)     ;
(PID.TID 0000.0001)  diag_mnc =   /* write NetCDF output files */
(PID.TID 0000.0001)                   F
(PID.TID 0000.0001)     ;
(PID.TID 0000.0001)  useMissingValue = /* put MissingValue where mask = 0 */
(PID.TID 0000.0001)                   F
(PID.TID 0000.0001)     ;
(PID.TID 0000.0001)  diagCG_maxIters = /* max number of iters in diag_cg2d */
(PID.TID 0000.0001)                     300
(PID.TID 0000.0001)     ;
(PID.TID 0000.0001)  diagCG_resTarget = /* residual target for diag_cg2d */
(PID.TID 0000.0001)                 9.999999999999999E-12
(PID.TID 0000.0001)     ;
(PID.TID 0000.0001)  diagCG_pcOffDFac = /* preconditioner off-diagonal factor */
(PID.TID 0000.0001)                 9.611687812379854E-01
(PID.TID 0000.0001)     ;
(PID.TID 0000.0001) -----------------------------------------------------
(PID.TID 0000.0001)  DIAGNOSTICS_READPARMS: active diagnostics summary:
(PID.TID 0000.0001) -----------------------------------------------------
(PID.TID 0000.0001) Creating Output Stream: surfDiag
(PID.TID 0000.0001) Output Frequency:        300.000000 ; Phase:           0.000000
(PID.TID 0000.0001)  Averaging Freq.:        300.000000 , Phase:           0.000000 , Cycle:   1
(PID.TID 0000.0001)  missing value: -9.990000000000E+02
(PID.TID 0000.0001)  Levels:    will be set later
(PID.TID 0000.0001)  Fields:    SHIfwFlx SHIhtFlx SHIgammT SHIgammS SHI_mass SHIRshel SI_Uvel  SI_Vvel  SI_Thick SI_hmask
(PID.TID 0000.0001)  Fields:    SI_float SHIuStar
(PID.TID 0000.0001) -----------------------------------------------------
(PID.TID 0000.0001)  DIAGNOSTICS_READPARMS: statistics diags. summary:
(PID.TID 0000.0001) -----------------------------------------------------
(PID.TID 0000.0001) 
(PID.TID 0000.0001) SET_PARMS: done
(PID.TID 0000.0001) Enter INI_VERTICAL_GRID: setInterFDr=    T ; setCenterDr=    F
(PID.TID 0000.0001) %MON XC_max                       =  -1.0518750000000E+02
(PID.TID 0000.0001) %MON XC_min                       =  -1.0543750000000E+02
(PID.TID 0000.0001) %MON XC_mean                      =  -1.0531250000000E+02
(PID.TID 0000.0001) %MON XC_sd                        =   1.0206207261597E-01
(PID.TID 0000.0001) %MON XG_max                       =  -1.0525000000000E+02
(PID.TID 0000.0001) %MON XG_min                       =  -1.0550000000000E+02
(PID.TID 0000.0001) %MON XG_mean                      =  -1.0537500000000E+02
(PID.TID 0000.0001) %MON XG_sd                        =   1.0206207261597E-01
(PID.TID 0000.0001) %MON DXC_max                      =   3.8568974527819E+03
(PID.TID 0000.0001) %MON DXC_min                      =   3.4932435587116E+03
(PID.TID 0000.0001) %MON DXC_mean                     =   3.6752948781653E+03
(PID.TID 0000.0001) %MON DXC_sd                       =   1.0550536922206E+02
(PID.TID 0000.0001) %MON DXF_max                      =   3.8568974527819E+03
(PID.TID 0000.0001) %MON DXF_min                      =   3.4932435587116E+03
(PID.TID 0000.0001) %MON DXF_mean                     =   3.6752948781653E+03
(PID.TID 0000.0001) %MON DXF_sd                       =   1.0550536922206E+02
(PID.TID 0000.0001) %MON DXG_max                      =   3.8559871961701E+03
(PID.TID 0000.0001) %MON DXG_min                      =   3.4923265038643E+03
(PID.TID 0000.0001) %MON DXG_mean                     =   3.6743811666547E+03
(PID.TID 0000.0001) %MON DXG_sd                       =   1.0550734153918E+02
(PID.TID 0000.0001) %MON DXV_max                      =   3.8559871961701E+03
(PID.TID 0000.0001) %MON DXV_min                      =   3.4923265038643E+03
(PID.TID 0000.0001) %MON DXV_mean                     =   3.6743811666547E+03
(PID.TID 0000.0001) %MON DXV_sd                       =   1.0550734153918E+02
(PID.TID 0000.0001) %MON YC_max                       =  -7.3887106250000E+01
(PID.TID 0000.0001) %MON YC_min                       =  -7.5441793750000E+01
(PID.TID 0000.0001) %MON YC_mean                      =  -7.4664449999999E+01
(PID.TID 0000.0001) %MON YC_sd                        =   4.5104925958293E-01
(PID.TID 0000.0001) %MON YG_max                       =  -7.3891012500000E+01
(PID.TID 0000.0001) %MON YG_min                       =  -7.5445700000000E+01
(PID.TID 0000.0001) %MON YG_mean                      =  -7.4668356249999E+01
(PID.TID 0000.0001) %MON YG_sd                        =   4.5104925958293E-01
(PID.TID 0000.0001) %MON DYC_max                      =   8.6857401056280E+02
(PID.TID 0000.0001) %MON DYC_min                      =   8.6857401056280E+02
(PID.TID 0000.0001) %MON DYC_mean                     =   8.6857401056280E+02
(PID.TID 0000.0001) %MON DYC_sd                       =   7.6170181273483E-12
(PID.TID 0000.0001) %MON DYF_max                      =   8.6857401056280E+02
(PID.TID 0000.0001) %MON DYF_min                      =   8.6857401056280E+02
(PID.TID 0000.0001) %MON DYF_mean                     =   8.6857401056280E+02
(PID.TID 0000.0001) %MON DYF_sd                       =   7.6170181273483E-12
(PID.TID 0000.0001) %MON DYG_max                      =   8.6857401056280E+02
(PID.TID 0000.0001) %MON DYG_min                      =   8.6857401056280E+02
(PID.TID 0000.0001) %MON DYG_mean                     =   8.6857401056280E+02
(PID.TID 0000.0001) %MON DYG_sd                       =   7.6170181273483E-12
(PID.TID 0000.0001) %MON DYU_max                      =   8.6857401056280E+02
(PID.TID 0000.0001) %MON DYU_min                      =   8.6857401056280E+02
(PID.TID 0000.0001) %MON DYU_mean                     =   8.6857401056280E+02
(PID.TID 0000.0001) %MON DYU_sd                       =   7.6170181273483E-12
(PID.TID 0000.0001) %MON RA_max                       =   3.3500008863052E+06
(PID.TID 0000.0001) %MON RA_min                       =   3.0341405653118E+06
(PID.TID 0000.0001) %MON RA_mean                      =   3.1922656098560E+06
(PID.TID 0000.0001) %MON RA_sd                        =   9.1639221610150E+04
(PID.TID 0000.0001) %MON RAW_max                      =   3.3500008863052E+06
(PID.TID 0000.0001) %MON RAW_min                      =   3.0341405653118E+06
(PID.TID 0000.0001) %MON RAW_mean                     =   3.1922656098560E+06
(PID.TID 0000.0001) %MON RAW_sd                       =   9.1639221610150E+04
(PID.TID 0000.0001) %MON RAS_max                      =   3.3492102610598E+06
(PID.TID 0000.0001) %MON RAS_min                      =   3.0333440353089E+06
(PID.TID 0000.0001) %MON RAS_mean                     =   3.1914719837854E+06
(PID.TID 0000.0001) %MON RAS_sd                       =   9.1640934713506E+04
(PID.TID 0000.0001) %MON RAZ_max                      =   3.3492102610598E+06
(PID.TID 0000.0001) %MON RAZ_min                      =   3.0333440353089E+06
(PID.TID 0000.0001) %MON RAZ_mean                     =   3.1914719837854E+06
(PID.TID 0000.0001) %MON RAZ_sd                       =   9.1640934713506E+04
(PID.TID 0000.0001) %MON AngleCS_max                  =   1.0000000000000E+00
(PID.TID 0000.0001) %MON AngleCS_min                  =   1.0000000000000E+00
(PID.TID 0000.0001) %MON AngleCS_mean                 =   1.0000000000000E+00
(PID.TID 0000.0001) %MON AngleCS_sd                   =   0.0000000000000E+00
(PID.TID 0000.0001) %MON AngleSN_max                  =   0.0000000000000E+00
(PID.TID 0000.0001) %MON AngleSN_min                  =   0.0000000000000E+00
(PID.TID 0000.0001) %MON AngleSN_mean                 =   0.0000000000000E+00
(PID.TID 0000.0001) %MON AngleSN_sd                   =   0.0000000000000E+00
(PID.TID 0000.0001)  MDS_READ_FIELD: opening global file: bathy.box
(PID.TID 0000.0001)  MDS_READ_FIELD: opening global file: shelftopo.round.bin
(PID.TID 0000.0001)  MDS_READ_META: opening file: pickup_shelfice.0000011395.meta
(PID.TID 0000.0001)  nRecords =   2 ; filePrec =  64 ; fileIter =     11395
(PID.TID 0000.0001)     nDims =   2 , dims:
(PID.TID 0000.0001)    1:   3   1   3
(PID.TID 0000.0001)    2: 200   1 200
(PID.TID 0000.0001)     nFlds =   2 , nFl3D =   0 , fields:
(PID.TID 0000.0001)  >SHI_mass< >R_Shelfi<
(PID.TID 0000.0001) missingVal=  1.00000000000000E+00 ; nTimRec =   1 , timeList:
(PID.TID 0000.0001)   3.418500000000E+06
(PID.TID 0000.0001) READ_MFLDS_LEV_RS: read field: "R_Shelfi", #   2 in fldList, rec=   2
(PID.TID 0000.0001)  MDS_READ_FIELD: opening global file: pickup_shelfice.0000011395.data
(PID.TID 0000.0001) READ_MFLDS_CHECK: - normal end ; reset MFLDS file-name: pickup_shelfice.0000011395
(PID.TID 0000.0001) GAD_INIT_FIXED: GAD_OlMinSize=  2  0  1
(PID.TID 0000.0001) 
(PID.TID 0000.0001) // ===================================
(PID.TID 0000.0001) // GAD parameters :
(PID.TID 0000.0001) // ===================================
(PID.TID 0000.0001) tempAdvScheme =   /* Temp. Horiz.Advection scheme selector */
(PID.TID 0000.0001)                      30
(PID.TID 0000.0001)     ;
(PID.TID 0000.0001) tempVertAdvScheme =   /* Temp. Vert. Advection scheme selector */
(PID.TID 0000.0001)                      30
(PID.TID 0000.0001)     ;
(PID.TID 0000.0001) tempMultiDimAdvec =   /* use Muti-Dim Advec method for Temp */
(PID.TID 0000.0001)                   T
(PID.TID 0000.0001)     ;
(PID.TID 0000.0001) tempSOM_Advection = /* use 2nd Order Moment Advection for Temp */
(PID.TID 0000.0001)                   F
(PID.TID 0000.0001)     ;
(PID.TID 0000.0001) AdamsBashforthGt = /* apply Adams-Bashforth extrapolation on Gt */
(PID.TID 0000.0001)                   F
(PID.TID 0000.0001)     ;
(PID.TID 0000.0001) AdamsBashforth_T = /* apply Adams-Bashforth extrapolation on Temp */
(PID.TID 0000.0001)                   F
(PID.TID 0000.0001)     ;
(PID.TID 0000.0001) saltAdvScheme =   /* Salt. Horiz.advection scheme selector */
(PID.TID 0000.0001)                      30
(PID.TID 0000.0001)     ;
(PID.TID 0000.0001) saltVertAdvScheme =   /* Salt. Vert. Advection scheme selector */
(PID.TID 0000.0001)                      30
(PID.TID 0000.0001)     ;
(PID.TID 0000.0001) saltMultiDimAdvec =   /* use Muti-Dim Advec method for Salt */
(PID.TID 0000.0001)                   T
(PID.TID 0000.0001)     ;
(PID.TID 0000.0001) saltSOM_Advection = /* use 2nd Order Moment Advection for Salt */
(PID.TID 0000.0001)                   F
(PID.TID 0000.0001)     ;
(PID.TID 0000.0001) AdamsBashforthGs = /* apply Adams-Bashforth extrapolation on Gs */
(PID.TID 0000.0001)                   F
(PID.TID 0000.0001)     ;
(PID.TID 0000.0001) AdamsBashforth_S = /* apply Adams-Bashforth extrapolation on Salt */
(PID.TID 0000.0001)                   F
(PID.TID 0000.0001)     ;
(PID.TID 0000.0001) // ===================================
(PID.TID 0000.0001) ADDED DIAGS TO LIST
(PID.TID 0000.0001)  MDS_READ_FIELD: opening global file: ufacemask3.box
(PID.TID 0000.0001)  MDS_READ_FIELD: opening global file: vfacemask3.box
(PID.TID 0000.0001)  MDS_READ_FIELD: opening global file: vdirich.box
(PID.TID 0000.0001)  MDS_READ_FIELD: opening global file: HBCy.box
(PID.TID 0000.0001)  MDS_READ_FIELD: opening global file: hmask3.box
(PID.TID 0000.0001)  MDS_READ_FIELD: opening global file: shelficemassinit.bin
(PID.TID 0000.0001) ------------------------------------------------------------
(PID.TID 0000.0001) DIAGNOSTICS_SET_LEVELS: done
(PID.TID 0000.0001)  Total Nb of available Diagnostics: ndiagt=   219
(PID.TID 0000.0001)  write list of available Diagnostics to file: available_diagnostics.log
(PID.TID 0000.0001) SETDIAG: Allocate  1 x  1 Levels for Diagnostic #   209 SHIfwFlx
(PID.TID 0000.0001) SETDIAG: Allocate  1 x  1 Levels for Diagnostic #   210 SHIhtFlx
(PID.TID 0000.0001) SETDIAG: Allocate  1 x  1 Levels for Diagnostic #   215 SHIgammT
(PID.TID 0000.0001) SETDIAG: Allocate  1 x  1 Levels for Diagnostic #   216 SHIgammS
(PID.TID 0000.0001) SETDIAG: Allocate  1 x  1 Levels for Diagnostic #   218 SHI_mass
(PID.TID 0000.0001) SETDIAG: Allocate  1 x  1 Levels for Diagnostic #   219 SHIRshel
(PID.TID 0000.0001) SETDIAG: Allocate  1 x  1 Levels for Diagnostic #   194 SI_Uvel
(PID.TID 0000.0001) SETDIAG: Allocate  1 x  1 Levels for Diagnostic #   195 SI_Vvel
(PID.TID 0000.0001) SETDIAG: Allocate  1 x  1 Levels for Diagnostic #   196 SI_Thick
(PID.TID 0000.0001) SETDIAG: Allocate  1 x  1 Levels for Diagnostic #   199 SI_hmask
(PID.TID 0000.0001) SETDIAG: Allocate  1 x  1 Levels for Diagnostic #   198 SI_float
(PID.TID 0000.0001) SETDIAG: Allocate  1 x  1 Levels for Diagnostic #   217 SHIuStar
(PID.TID 0000.0001)   space allocated for all diagnostics:      12 levels
(PID.TID 0000.0001) DIAGNOSTICS_SET_POINTERS: Set levels for Outp.Stream: surfDiag
(PID.TID 0000.0001)  Levels:       1.
(PID.TID 0000.0001) DIAGNOSTICS_SET_POINTERS: done
(PID.TID 0000.0001) ------------------------------------------------------------
(PID.TID 0000.0001) DIAGSTATS_SET_REGIONS: define no region
(PID.TID 0000.0001) ------------------------------------------------------------
(PID.TID 0000.0001)   space allocated for all stats-diags:       0 levels
(PID.TID 0000.0001) DIAGSTATS_SET_POINTERS: done
(PID.TID 0000.0001) ------------------------------------------------------------
(PID.TID 0000.0001) %MON fCori_max                    =   0.0000000000000E+00
(PID.TID 0000.0001) %MON fCori_min                    =   0.0000000000000E+00
(PID.TID 0000.0001) %MON fCori_mean                   =   0.0000000000000E+00
(PID.TID 0000.0001) %MON fCori_sd                     =   0.0000000000000E+00
(PID.TID 0000.0001) %MON fCoriG_max                   =   0.0000000000000E+00
(PID.TID 0000.0001) %MON fCoriG_min                   =   0.0000000000000E+00
(PID.TID 0000.0001) %MON fCoriG_mean                  =   0.0000000000000E+00
(PID.TID 0000.0001) %MON fCoriG_sd                    =   0.0000000000000E+00
(PID.TID 0000.0001) %MON fCoriCos_max                 =   0.0000000000000E+00
(PID.TID 0000.0001) %MON fCoriCos_min                 =   0.0000000000000E+00
(PID.TID 0000.0001) %MON fCoriCos_mean                =   0.0000000000000E+00
(PID.TID 0000.0001) %MON fCoriCos_sd                  =   0.0000000000000E+00
(PID.TID 0000.0001) INI_CG2D: CG2D normalisation factor =  2.5039971719217701E-04
(PID.TID 0000.0001) 
(PID.TID 0000.0001) // =======================================================
(PID.TID 0000.0001) // Model configuration
(PID.TID 0000.0001) // =======================================================
(PID.TID 0000.0001) //
(PID.TID 0000.0001) // "Physical" paramters ( PARM01 in namelist )
(PID.TID 0000.0001) //
(PID.TID 0000.0001) buoyancyRelation = /* Type of relation to get Buoyancy */
(PID.TID 0000.0001)               'OCEANIC'
(PID.TID 0000.0001)     ;
(PID.TID 0000.0001) fluidIsAir   =  /* fluid major constituent is Air */
(PID.TID 0000.0001)                   F
(PID.TID 0000.0001)     ;
(PID.TID 0000.0001) fluidIsWater =  /* fluid major constituent is Water */
(PID.TID 0000.0001)                   T
(PID.TID 0000.0001)     ;
(PID.TID 0000.0001) usingPCoords =  /* use p (or p*) vertical coordinate */
(PID.TID 0000.0001)                   F
(PID.TID 0000.0001)     ;
(PID.TID 0000.0001) usingZCoords =  /* use z (or z*) vertical coordinate */
(PID.TID 0000.0001)                   T
(PID.TID 0000.0001)     ;
(PID.TID 0000.0001) tRef =   /* Reference temperature profile ( oC or K ) */
(PID.TID 0000.0001)    90 @ -1.900000000000000E+00              /* K =  1: 90 */
(PID.TID 0000.0001)     ;
(PID.TID 0000.0001) sRef =   /* Reference salinity profile ( g/kg ) */
(PID.TID 0000.0001)    90 @  3.440000000000000E+01              /* K =  1: 90 */
(PID.TID 0000.0001)     ;
(PID.TID 0000.0001) useStrainTensionVisc= /* Use StrainTension Form of Viscous Operator */
(PID.TID 0000.0001)                   F
(PID.TID 0000.0001)     ;
(PID.TID 0000.0001) useVariableVisc = /* Use variable horizontal viscosity */
(PID.TID 0000.0001)                   T
(PID.TID 0000.0001)     ;
(PID.TID 0000.0001) useHarmonicVisc = /* Use harmonic horizontal viscosity */
(PID.TID 0000.0001)                   T
(PID.TID 0000.0001)     ;
(PID.TID 0000.0001) useBiharmonicVisc= /* Use biharmonic horiz.  viscosity */
(PID.TID 0000.0001)                   T
(PID.TID 0000.0001)     ;
(PID.TID 0000.0001) useSmag3D = /* Use isotropic 3-D Smagorinsky viscosity */
(PID.TID 0000.0001)                   F
(PID.TID 0000.0001)     ;
(PID.TID 0000.0001) viscAh  =   /* Lateral harmonic viscosity ( m^2/s ) */
(PID.TID 0000.0001)                 0.000000000000000E+00
(PID.TID 0000.0001)     ;
(PID.TID 0000.0001) viscAhMax = /* Maximum lateral harmonic viscosity ( m^2/s ) */
(PID.TID 0000.0001)                 1.000000000000000E+21
(PID.TID 0000.0001)     ;
(PID.TID 0000.0001) viscAhGrid = /* Grid dependent lateral harmonic viscosity ( non-dim. ) */
(PID.TID 0000.0001)                 2.000000000000000E-01
(PID.TID 0000.0001)     ;
(PID.TID 0000.0001) useFullLeith = /* Use Full Form of Leith Viscosity on/off flag*/
(PID.TID 0000.0001)                   F
(PID.TID 0000.0001)     ;
(PID.TID 0000.0001) useAreaViscLength = /* Use area for visc length instead of geom. mean*/
(PID.TID 0000.0001)                   F
(PID.TID 0000.0001)     ;
(PID.TID 0000.0001) viscC2leith = /* Leith harmonic visc. factor (on grad(vort),non-dim.) */
(PID.TID 0000.0001)                 0.000000000000000E+00
(PID.TID 0000.0001)     ;
(PID.TID 0000.0001) viscC2leithD = /* Leith harmonic viscosity factor (on grad(div),non-dim.)*/
(PID.TID 0000.0001)                 0.000000000000000E+00
(PID.TID 0000.0001)     ;
(PID.TID 0000.0001) viscC2LeithQG = /* QG Leith harmonic viscosity factor (non-dim.)*/
(PID.TID 0000.0001)                 0.000000000000000E+00
(PID.TID 0000.0001)     ;
(PID.TID 0000.0001) viscC2smag = /* Smagorinsky harmonic viscosity factor (non-dim.) */
(PID.TID 0000.0001)                 0.000000000000000E+00
(PID.TID 0000.0001)     ;
(PID.TID 0000.0001) viscA4  =   /* Lateral biharmonic viscosity ( m^4/s ) */
(PID.TID 0000.0001)                 0.000000000000000E+00
(PID.TID 0000.0001)     ;
(PID.TID 0000.0001) viscA4Max = /* Maximum biharmonic viscosity ( m^2/s ) */
(PID.TID 0000.0001)                 1.000000000000000E+21
(PID.TID 0000.0001)     ;
(PID.TID 0000.0001) viscA4Grid = /* Grid dependent biharmonic viscosity ( non-dim. ) */
(PID.TID 0000.0001)                 2.000000000000000E-02
(PID.TID 0000.0001)     ;
(PID.TID 0000.0001) viscC4leith = /* Leith biharm viscosity factor (on grad(vort), non-dim.)*/
(PID.TID 0000.0001)                 0.000000000000000E+00
(PID.TID 0000.0001)     ;
(PID.TID 0000.0001) viscC4leithD = /* Leith biharm viscosity factor (on grad(div), non-dim.) */
(PID.TID 0000.0001)                 0.000000000000000E+00
(PID.TID 0000.0001)     ;
(PID.TID 0000.0001) viscC4Smag = /* Smagorinsky biharm viscosity factor (non-dim) */
(PID.TID 0000.0001)                 0.000000000000000E+00
(PID.TID 0000.0001)     ;
(PID.TID 0000.0001) no_slip_sides =  /* Viscous BCs: No-slip sides */
(PID.TID 0000.0001)                   F
(PID.TID 0000.0001)     ;
(PID.TID 0000.0001) sideDragFactor = /* side-drag scaling factor (non-dim) */
(PID.TID 0000.0001)                 2.000000000000000E+00
(PID.TID 0000.0001)     ;
(PID.TID 0000.0001) viscArNr = /* vertical profile of vertical viscosity ( m^2/s )*/
(PID.TID 0000.0001)    90 @  1.000000000000000E-03              /* K =  1: 90 */
(PID.TID 0000.0001)     ;
(PID.TID 0000.0001) no_slip_bottom =  /* Viscous BCs: No-slip bottom */
(PID.TID 0000.0001)                   F
(PID.TID 0000.0001)     ;
(PID.TID 0000.0001) bottomVisc_pCell = /* Partial-cell in bottom Visc. BC */
(PID.TID 0000.0001)                   F
(PID.TID 0000.0001)     ;
(PID.TID 0000.0001) bottomDragLinear = /* linear bottom-drag coefficient ( m/s ) */
(PID.TID 0000.0001)                 0.000000000000000E+00
(PID.TID 0000.0001)     ;
(PID.TID 0000.0001) bottomDragQuadratic = /* quadratic bottom-drag coefficient (-) */
(PID.TID 0000.0001)                 2.500000000000000E-03
(PID.TID 0000.0001)     ;
(PID.TID 0000.0001) selectBotDragQuadr = /* select quadratic bottom drag options */
(PID.TID 0000.0001)                       0
(PID.TID 0000.0001)     ;
(PID.TID 0000.0001) diffKhT =   /* Laplacian diffusion of heat laterally ( m^2/s ) */
(PID.TID 0000.0001)                 1.000000000000000E+02
(PID.TID 0000.0001)     ;
(PID.TID 0000.0001) diffK4T =   /* Biharmonic diffusion of heat laterally ( m^4/s ) */
(PID.TID 0000.0001)                 0.000000000000000E+00
(PID.TID 0000.0001)     ;
(PID.TID 0000.0001) diffKhS =   /* Laplacian diffusion of salt laterally ( m^2/s ) */
(PID.TID 0000.0001)                 1.000000000000000E+02
(PID.TID 0000.0001)     ;
(PID.TID 0000.0001) diffK4S =   /* Biharmonic diffusion of salt laterally ( m^4/s ) */
(PID.TID 0000.0001)                 0.000000000000000E+00
(PID.TID 0000.0001)     ;
(PID.TID 0000.0001) diffKrNrT = /* vertical profile of vertical diffusion of Temp ( m^2/s )*/
(PID.TID 0000.0001)    90 @  5.000000000000000E-05              /* K =  1: 90 */
(PID.TID 0000.0001)     ;
(PID.TID 0000.0001) diffKrNrS = /* vertical profile of vertical diffusion of Salt ( m^2/s )*/
(PID.TID 0000.0001)    90 @  5.000000000000000E-05              /* K =  1: 90 */
(PID.TID 0000.0001)     ;
(PID.TID 0000.0001) diffKrBL79surf = /* Surface diffusion for Bryan and Lewis 79 ( m^2/s ) */
(PID.TID 0000.0001)                 0.000000000000000E+00
(PID.TID 0000.0001)     ;
(PID.TID 0000.0001) diffKrBL79deep = /* Deep diffusion for Bryan and Lewis 1979 ( m^2/s ) */
(PID.TID 0000.0001)                 0.000000000000000E+00
(PID.TID 0000.0001)     ;
(PID.TID 0000.0001) diffKrBL79scl = /* Depth scale for Bryan and Lewis 1979 ( m ) */
(PID.TID 0000.0001)                 2.000000000000000E+02
(PID.TID 0000.0001)     ;
(PID.TID 0000.0001) diffKrBL79Ho = /* Turning depth for Bryan and Lewis 1979 ( m ) */
(PID.TID 0000.0001)                -2.000000000000000E+03
(PID.TID 0000.0001)     ;
(PID.TID 0000.0001) ivdc_kappa = /* Implicit Vertical Diffusivity for Convection ( m^2/s) */
(PID.TID 0000.0001)                 0.000000000000000E+00
(PID.TID 0000.0001)     ;
(PID.TID 0000.0001) hMixCriteria=  /* Criteria for mixed-layer diagnostic */
(PID.TID 0000.0001)                -8.000000000000000E-01
(PID.TID 0000.0001)     ;
(PID.TID 0000.0001) dRhoSmall =  /* Parameter for mixed-layer diagnostic */
(PID.TID 0000.0001)                 1.000000000000000E-06
(PID.TID 0000.0001)     ;
(PID.TID 0000.0001) hMixSmooth=  /* Smoothing parameter for mixed-layer diagnostic */
(PID.TID 0000.0001)                 0.000000000000000E+00
(PID.TID 0000.0001)     ;
(PID.TID 0000.0001) eosType =  /* Type of Equation of State */
(PID.TID 0000.0001)               'JMD95Z'
(PID.TID 0000.0001)     ;
(PID.TID 0000.0001) eosRefP0 = /* Reference atmospheric pressure for EOS ( Pa ) */
(PID.TID 0000.0001)                 1.013250000000000E+05
(PID.TID 0000.0001)     ;
(PID.TID 0000.0001) selectP_inEOS_Zc = /* select pressure to use in EOS (0,1,2,3) */
(PID.TID 0000.0001)                       0
(PID.TID 0000.0001)     0= -g*rhoConst*z ; 1= pRef (from tRef,sRef); 2= Hyd P ; 3= Hyd+NH P
(PID.TID 0000.0001)     ;
(PID.TID 0000.0001) surf_pRef = /* Surface reference pressure ( Pa ) */
(PID.TID 0000.0001)                 1.013250000000000E+05
(PID.TID 0000.0001)     ;
(PID.TID 0000.0001) HeatCapacity_Cp =  /* Specific heat capacity ( J/kg/K ) */
(PID.TID 0000.0001)                 3.974000000000000E+03
(PID.TID 0000.0001)     ;
(PID.TID 0000.0001) celsius2K = /* 0 degree Celsius converted to Kelvin ( K ) */
(PID.TID 0000.0001)                 2.731500000000000E+02
(PID.TID 0000.0001)     ;
(PID.TID 0000.0001) rhoConst  = /* Reference density (Boussinesq)  ( kg/m^3 ) */
(PID.TID 0000.0001)                 1.000000000000000E+03
(PID.TID 0000.0001)     ;
(PID.TID 0000.0001) rhoFacC = /* normalized Reference density @ cell-Center (-) */
(PID.TID 0000.0001)    90 @  1.000000000000000E+00              /* K =  1: 90 */
(PID.TID 0000.0001)     ;
(PID.TID 0000.0001) rhoFacF = /* normalized Reference density @ W-Interface (-) */
(PID.TID 0000.0001)    91 @  1.000000000000000E+00              /* K =  1: 91 */
(PID.TID 0000.0001)     ;
(PID.TID 0000.0001) rhoConstFresh = /* Fresh-water reference density ( kg/m^3 ) */
(PID.TID 0000.0001)                 1.000000000000000E+03
(PID.TID 0000.0001)     ;
(PID.TID 0000.0001) gravity =   /* Gravitational acceleration ( m/s^2 ) */
(PID.TID 0000.0001)                 9.810000000000000E+00
(PID.TID 0000.0001)     ;
(PID.TID 0000.0001) gBaro =   /* Barotropic gravity ( m/s^2 ) */
(PID.TID 0000.0001)                 9.810000000000000E+00
(PID.TID 0000.0001)     ;
(PID.TID 0000.0001) gravFacC = /* gravity factor (vs surf.) @ cell-Center (-) */
(PID.TID 0000.0001)    90 @  1.000000000000000E+00              /* K =  1: 90 */
(PID.TID 0000.0001)     ;
(PID.TID 0000.0001) gravFacF = /* gravity factor (vs surf.) @ W-Interface (-) */
(PID.TID 0000.0001)    91 @  1.000000000000000E+00              /* K =  1: 91 */
(PID.TID 0000.0001)     ;
(PID.TID 0000.0001) rotationPeriod =   /* Rotation Period ( s ) */
(PID.TID 0000.0001)                 8.616400000000000E+04
(PID.TID 0000.0001)     ;
(PID.TID 0000.0001) omega =   /* Angular velocity ( rad/s ) */
(PID.TID 0000.0001)                 7.292123516990375E-05
(PID.TID 0000.0001)     ;
(PID.TID 0000.0001) f0 =   /* Reference coriolis parameter ( 1/s ) */
(PID.TID 0000.0001)                 0.000000000000000E+00
(PID.TID 0000.0001)     ;
(PID.TID 0000.0001) beta =   /* Beta ( 1/(m.s) ) */
(PID.TID 0000.0001)                 9.999999999999999E-12
(PID.TID 0000.0001)     ;
(PID.TID 0000.0001) fPrime =   /* Second coriolis parameter ( 1/s ) */
(PID.TID 0000.0001)                 0.000000000000000E+00
(PID.TID 0000.0001)     ;
(PID.TID 0000.0001) rigidLid =   /* Rigid lid on/off flag */
(PID.TID 0000.0001)                   F
(PID.TID 0000.0001)     ;
(PID.TID 0000.0001) implicitFreeSurface =   /* Implicit free surface on/off flag */
(PID.TID 0000.0001)                   T
(PID.TID 0000.0001)     ;
(PID.TID 0000.0001) freeSurfFac =   /* Implicit free surface factor */
(PID.TID 0000.0001)                 1.000000000000000E+00
(PID.TID 0000.0001)     ;
(PID.TID 0000.0001) implicSurfPress =  /* Surface Pressure implicit factor (0-1)*/
(PID.TID 0000.0001)                 1.000000000000000E+00
(PID.TID 0000.0001)     ;
(PID.TID 0000.0001) implicDiv2DFlow =  /* Barot. Flow Div. implicit factor (0-1)*/
(PID.TID 0000.0001)                 1.000000000000000E+00
(PID.TID 0000.0001)     ;
(PID.TID 0000.0001) uniformLin_PhiSurf = /* use uniform Bo_surf on/off flag*/
(PID.TID 0000.0001)                   T
(PID.TID 0000.0001)     ;
(PID.TID 0000.0001) uniformFreeSurfLev = /* free-surface level-index is uniform */
(PID.TID 0000.0001)                   F
(PID.TID 0000.0001)     ;
(PID.TID 0000.0001) hFacMin =   /* minimum partial cell factor (hFac) */
(PID.TID 0000.0001)                 2.000000000000000E-01
(PID.TID 0000.0001)     ;
(PID.TID 0000.0001) hFacMinDr = /* minimum partial cell thickness ( m) */
(PID.TID 0000.0001)                 0.000000000000000E+00
(PID.TID 0000.0001)     ;
(PID.TID 0000.0001) exactConserv =  /* Exact Volume Conservation on/off flag*/
(PID.TID 0000.0001)                   T
(PID.TID 0000.0001)     ;
(PID.TID 0000.0001) linFSConserveTr = /* Tracer correction for Lin Free Surface on/off flag*/
(PID.TID 0000.0001)                   F
(PID.TID 0000.0001)     ;
(PID.TID 0000.0001) nonlinFreeSurf = /* Non-linear Free Surf. options (-1,0,1,2,3)*/
(PID.TID 0000.0001)                       4
(PID.TID 0000.0001)      -1,0= Off ; 1,2,3= On, 2=+rescale gU,gV, 3=+update cg2d solv.
(PID.TID 0000.0001)     ;
(PID.TID 0000.0001) hFacInf =   /* lower threshold for hFac (nonlinFreeSurf only)*/
(PID.TID 0000.0001)                 2.000000000000000E-01
(PID.TID 0000.0001)     ;
(PID.TID 0000.0001) hFacSup =   /* upper threshold for hFac (nonlinFreeSurf only)*/
(PID.TID 0000.0001)                 2.000000000000000E+00
(PID.TID 0000.0001)     ;
(PID.TID 0000.0001) select_rStar = /* r* Vertical coord. options (=0 r coord.; >0 uses r*)*/
(PID.TID 0000.0001)                       0
(PID.TID 0000.0001)     ;
(PID.TID 0000.0001) useRealFreshWaterFlux = /* Real Fresh Water Flux on/off flag*/
(PID.TID 0000.0001)                   T
(PID.TID 0000.0001)     ;
(PID.TID 0000.0001) temp_EvPrRn = /* Temp. of Evap/Prec/R (UNSET=use local T)(oC)*/
(PID.TID 0000.0001)                 1.234567000000000E+05
(PID.TID 0000.0001)     ;
(PID.TID 0000.0001) salt_EvPrRn = /* Salin. of Evap/Prec/R (UNSET=use local S)(g/kg)*/
(PID.TID 0000.0001)                 0.000000000000000E+00
(PID.TID 0000.0001)     ;
(PID.TID 0000.0001) selectAddFluid = /* option for mass source/sink of fluid (=0: off) */
(PID.TID 0000.0001)                       0
(PID.TID 0000.0001)     ;
(PID.TID 0000.0001) temp_addMass = /* Temp. of addMass array (UNSET=use local T)(oC)*/
(PID.TID 0000.0001)                 1.234567000000000E+05
(PID.TID 0000.0001)     ;
(PID.TID 0000.0001) salt_addMass = /* Salin. of addMass array (UNSET=use local S)(g/kg)*/
(PID.TID 0000.0001)                 0.000000000000000E+00
(PID.TID 0000.0001)     ;
(PID.TID 0000.0001) use3Dsolver = /* use 3-D pressure solver on/off flag */
(PID.TID 0000.0001)                   F
(PID.TID 0000.0001)     ;
(PID.TID 0000.0001) nonHydrostatic =  /* Non-Hydrostatic on/off flag */
(PID.TID 0000.0001)                   F
(PID.TID 0000.0001)     ;
(PID.TID 0000.0001) nh_Am2 = /* Non-Hydrostatic terms scaling factor */
(PID.TID 0000.0001)                 1.000000000000000E+00
(PID.TID 0000.0001)     ;
(PID.TID 0000.0001) implicitNHPress = /* Non-Hyd Pressure implicit factor (0-1)*/
(PID.TID 0000.0001)                 1.000000000000000E+00
(PID.TID 0000.0001)     ;
(PID.TID 0000.0001) selectNHfreeSurf = /* Non-Hyd (free-)Surface option */
(PID.TID 0000.0001)                       0
(PID.TID 0000.0001)     ;
(PID.TID 0000.0001) quasiHydrostatic = /* Quasi-Hydrostatic on/off flag */
(PID.TID 0000.0001)                   F
(PID.TID 0000.0001)     ;
(PID.TID 0000.0001) calc_wVelocity = /* vertical velocity calculation on/off flag */
(PID.TID 0000.0001)                   T
(PID.TID 0000.0001)     ;
(PID.TID 0000.0001) momStepping =  /* Momentum equation on/off flag */
(PID.TID 0000.0001)                   T
(PID.TID 0000.0001)     ;
(PID.TID 0000.0001) vectorInvariantMomentum= /* Vector-Invariant Momentum on/off */
(PID.TID 0000.0001)                   T
(PID.TID 0000.0001)     ;
(PID.TID 0000.0001) momAdvection =  /* Momentum advection on/off flag */
(PID.TID 0000.0001)                   T
(PID.TID 0000.0001)     ;
(PID.TID 0000.0001) momViscosity =  /* Momentum viscosity on/off flag */
(PID.TID 0000.0001)                   T
(PID.TID 0000.0001)     ;
(PID.TID 0000.0001) momImplVertAdv= /* Momentum implicit vert. advection on/off*/
(PID.TID 0000.0001)                   F
(PID.TID 0000.0001)     ;
(PID.TID 0000.0001) implicitViscosity = /* Implicit viscosity on/off flag */
(PID.TID 0000.0001)                   T
(PID.TID 0000.0001)     ;
(PID.TID 0000.0001) selectImplicitDrag= /* Implicit bot Drag options (0,1,2)*/
(PID.TID 0000.0001)                       0
(PID.TID 0000.0001)     0= Expl. ; 1= Impl. on provis. Vel ; 2= Fully Impl (with surf.P)
(PID.TID 0000.0001)     ;
(PID.TID 0000.0001) metricTerms =  /* metric-Terms on/off flag */
(PID.TID 0000.0001)                   T
(PID.TID 0000.0001)     ;
(PID.TID 0000.0001) useNHMTerms = /* Non-Hydrostatic Metric-Terms on/off */
(PID.TID 0000.0001)                   F
(PID.TID 0000.0001)     ;
(PID.TID 0000.0001) selectCoriMap = /* Coriolis Map options (0,1,2,3)*/
(PID.TID 0000.0001)                       0
(PID.TID 0000.0001)     0= f-Plane ; 1= Beta-Plane ; 2= Spherical ; 3= read from file
(PID.TID 0000.0001)     ;
(PID.TID 0000.0001) use3dCoriolis = /* 3-D Coriolis on/off flag */
(PID.TID 0000.0001)                   F
(PID.TID 0000.0001)     ;
(PID.TID 0000.0001) useCoriolis =  /* Coriolis on/off flag */
(PID.TID 0000.0001)                   F
(PID.TID 0000.0001)     ;
(PID.TID 0000.0001) useCDscheme =  /* CD scheme on/off flag */
(PID.TID 0000.0001)                   F
(PID.TID 0000.0001)     ;
(PID.TID 0000.0001) selectCoriScheme= /* Scheme selector for Coriolis-Term */
(PID.TID 0000.0001)                       0
(PID.TID 0000.0001)    = 0 : original discretization (simple averaging, no hFac)
(PID.TID 0000.0001)    = 1 : Wet-point averaging (Jamar & Ozer 1986)
(PID.TID 0000.0001)    = 2 : hFac weighted average (Angular Mom. conserving)
(PID.TID 0000.0001)    = 3 : energy conserving scheme using hFac weighted average
(PID.TID 0000.0001)     ;
(PID.TID 0000.0001) useAbsVorticity= /* V.I Works with f+zeta in Coriolis */
(PID.TID 0000.0001)                   F
(PID.TID 0000.0001)     ;
(PID.TID 0000.0001) selectVortScheme= /* V.I Scheme selector for Vorticity-Term */
(PID.TID 0000.0001)                       1
(PID.TID 0000.0001)    = 0 : enstrophy (Shallow-Water Eq.) conserving scheme by Sadourny, JAS 75
(PID.TID 0000.0001)    = 1 : same as 0 with modified hFac
(PID.TID 0000.0001)    = 2 : energy conserving scheme (used by Sadourny in JAS 75 paper)
(PID.TID 0000.0001)    = 3 : energy (general) and enstrophy (2D, nonDiv.) conserving scheme
(PID.TID 0000.0001)          from Sadourny (Burridge & Haseler, ECMWF Rep.4, 1977)
(PID.TID 0000.0001)     ;
(PID.TID 0000.0001) useJamartMomAdv= /* V.I Non-linear terms Jamart flag */
(PID.TID 0000.0001)                   F
(PID.TID 0000.0001)     ;
(PID.TID 0000.0001) upwindVorticity= /* V.I Upwind bias vorticity flag */
(PID.TID 0000.0001)                   F
(PID.TID 0000.0001)     ;
(PID.TID 0000.0001) highOrderVorticity= /* V.I High order vort. advect. flag */
(PID.TID 0000.0001)                   F
(PID.TID 0000.0001)     ;
(PID.TID 0000.0001) upwindShear= /* V.I Upwind vertical Shear advection flag */
(PID.TID 0000.0001)                   F
(PID.TID 0000.0001)     ;
(PID.TID 0000.0001) selectKEscheme= /* V.I Kinetic Energy scheme selector */
(PID.TID 0000.0001)                       0
(PID.TID 0000.0001)     ;
(PID.TID 0000.0001) momForcing =  /* Momentum forcing on/off flag */
(PID.TID 0000.0001)                   T
(PID.TID 0000.0001)     ;
(PID.TID 0000.0001) momTidalForcing = /* Momentum Tidal forcing on/off flag */
(PID.TID 0000.0001)                   T
(PID.TID 0000.0001)     ;
(PID.TID 0000.0001) momPressureForcing =  /* Momentum pressure term on/off flag */
(PID.TID 0000.0001)                   T
(PID.TID 0000.0001)     ;
(PID.TID 0000.0001) implicitIntGravWave= /* Implicit Internal Gravity Wave flag */
(PID.TID 0000.0001)                   F
(PID.TID 0000.0001)     ;
(PID.TID 0000.0001) staggerTimeStep =    /* Stagger time stepping on/off flag */
(PID.TID 0000.0001)                   T
(PID.TID 0000.0001)     ;
(PID.TID 0000.0001) doResetHFactors = /* reset thickness factors @ each time-step */
(PID.TID 0000.0001)                   F
(PID.TID 0000.0001)     ;
(PID.TID 0000.0001) multiDimAdvection =  /* enable/disable Multi-Dim Advection */
(PID.TID 0000.0001)                   T
(PID.TID 0000.0001)     ;
(PID.TID 0000.0001) useMultiDimAdvec =   /* Multi-Dim Advection is/is-not used */
(PID.TID 0000.0001)                   T
(PID.TID 0000.0001)     ;
(PID.TID 0000.0001) implicitDiffusion = /* Implicit Diffusion on/off flag */
(PID.TID 0000.0001)                   T
(PID.TID 0000.0001)     ;
(PID.TID 0000.0001) tempStepping =  /* Temperature equation on/off flag */
(PID.TID 0000.0001)                   T
(PID.TID 0000.0001)     ;
(PID.TID 0000.0001) tempAdvection = /* Temperature advection on/off flag */
(PID.TID 0000.0001)                   T
(PID.TID 0000.0001)     ;
(PID.TID 0000.0001) tempImplVertAdv = /* Temp. implicit vert. advection on/off */
(PID.TID 0000.0001)                   T
(PID.TID 0000.0001)     ;
(PID.TID 0000.0001) tempForcing  =  /* Temperature forcing on/off flag */
(PID.TID 0000.0001)                   T
(PID.TID 0000.0001)     ;
(PID.TID 0000.0001) doThetaClimRelax = /* apply SST relaxation on/off flag */
(PID.TID 0000.0001)                   F
(PID.TID 0000.0001)     ;
(PID.TID 0000.0001) tempIsActiveTr = /* Temp. is a dynamically Active Tracer */
(PID.TID 0000.0001)                   T
(PID.TID 0000.0001)     ;
(PID.TID 0000.0001) saltStepping =  /* Salinity equation on/off flag */
(PID.TID 0000.0001)                   T
(PID.TID 0000.0001)     ;
(PID.TID 0000.0001) saltAdvection = /* Salinity advection on/off flag */
(PID.TID 0000.0001)                   T
(PID.TID 0000.0001)     ;
(PID.TID 0000.0001) saltImplVertAdv = /* Sali. implicit vert. advection on/off */
(PID.TID 0000.0001)                   T
(PID.TID 0000.0001)     ;
(PID.TID 0000.0001) saltForcing  =  /* Salinity forcing on/off flag */
(PID.TID 0000.0001)                   T
(PID.TID 0000.0001)     ;
(PID.TID 0000.0001) doSaltClimRelax = /* apply SSS relaxation on/off flag */
(PID.TID 0000.0001)                   F
(PID.TID 0000.0001)     ;
(PID.TID 0000.0001) saltIsActiveTr = /* Salt  is a dynamically Active Tracer */
(PID.TID 0000.0001)                   T
(PID.TID 0000.0001)     ;
(PID.TID 0000.0001)  readBinaryPrec = /* Precision used for reading binary files */
(PID.TID 0000.0001)                      64
(PID.TID 0000.0001)     ;
(PID.TID 0000.0001) writeBinaryPrec = /* Precision used for writing binary files */
(PID.TID 0000.0001)                      32
(PID.TID 0000.0001)     ;
(PID.TID 0000.0001)  rwSuffixType =   /* select format of mds file suffix */
(PID.TID 0000.0001)                       0
(PID.TID 0000.0001)    = 0 : myIter (I10.10) ;   = 1 : 100*myTime (100th sec) ;
(PID.TID 0000.0001)    = 2 : myTime (seconds);   = 3 : myTime/360 (10th of hr);
(PID.TID 0000.0001)    = 4 : myTime/3600 (hours)
(PID.TID 0000.0001)     ;
(PID.TID 0000.0001)  globalFiles = /* write "global" (=not per tile) files */
(PID.TID 0000.0001)                   T
(PID.TID 0000.0001)     ;
(PID.TID 0000.0001)  useSingleCpuIO = /* only master MPI process does I/O */
(PID.TID 0000.0001)                   T
(PID.TID 0000.0001)     ;
(PID.TID 0000.0001)  useSingleCpuInput = /* only master process reads input */
(PID.TID 0000.0001)                   T
(PID.TID 0000.0001)     ;
(PID.TID 0000.0001) /* debLev[*]  : level of debug & auxiliary message printing */
(PID.TID 0000.0001) debLevZero =  0 ; /* level of disabled aux. msg printing */
(PID.TID 0000.0001)    debLevA =  1 ; /* level of minimum  aux. msg printing */
(PID.TID 0000.0001)    debLevB =  2 ; /* level of low aux. print (report read-file opening)*/
(PID.TID 0000.0001)    debLevC =  3 ; /* level of moderate debug prt (most pkgs debug msg) */
(PID.TID 0000.0001)    debLevD =  4 ; /* level of enhanced debug prt (add DEBUG_STATS prt) */
(PID.TID 0000.0001)    debLevE =  5 ; /* level of extensive debug printing */
(PID.TID 0000.0001) debugLevel =  /* select debug printing level */
(PID.TID 0000.0001)                       2
(PID.TID 0000.0001)     ;
(PID.TID 0000.0001)  plotLevel =  /* select PLOT_FIELD printing level */
(PID.TID 0000.0001)                       0
(PID.TID 0000.0001)     ;
(PID.TID 0000.0001) //
(PID.TID 0000.0001) // Elliptic solver(s) paramters ( PARM02 in namelist )
(PID.TID 0000.0001) //
(PID.TID 0000.0001) cg2dMaxIters =   /* Upper limit on 2d con. grad iterations  */
(PID.TID 0000.0001)                     300
(PID.TID 0000.0001)     ;
(PID.TID 0000.0001) cg2dChkResFreq =   /* 2d con. grad convergence test frequency */
(PID.TID 0000.0001)                       1
(PID.TID 0000.0001)     ;
(PID.TID 0000.0001) cg2dUseMinResSol= /* use cg2d last-iter(=0) / min-resid.(=1) solution */
(PID.TID 0000.0001)                       0
(PID.TID 0000.0001)     ;
(PID.TID 0000.0001) cg2dTargetResidual =   /* 2d con. grad target residual  */
(PID.TID 0000.0001)                 9.999999999999999E-12
(PID.TID 0000.0001)     ;
(PID.TID 0000.0001) cg2dTargetResWunit =   /* CG2d target residual [W units] */
(PID.TID 0000.0001)                -1.000000000000000E+00
(PID.TID 0000.0001)     ;
(PID.TID 0000.0001) cg2dPreCondFreq =   /* Freq. for updating cg2d preconditioner */
(PID.TID 0000.0001)                       1
(PID.TID 0000.0001)     ;
(PID.TID 0000.0001) useSRCGSolver =  /* use single reduction CG solver(s) */
(PID.TID 0000.0001)                   F
(PID.TID 0000.0001)     ;
(PID.TID 0000.0001) printResidualFreq = /* Freq. for printing CG residual */
(PID.TID 0000.0001)                       0
(PID.TID 0000.0001)     ;
(PID.TID 0000.0001) //
(PID.TID 0000.0001) // Time stepping paramters ( PARM03 in namelist )
(PID.TID 0000.0001) //
(PID.TID 0000.0001) deltaTMom =   /* Momentum equation timestep ( s ) */
(PID.TID 0000.0001)                 3.000000000000000E+02
(PID.TID 0000.0001)     ;
(PID.TID 0000.0001) deltaTFreeSurf = /* FreeSurface equation timestep ( s ) */
(PID.TID 0000.0001)                 3.000000000000000E+02
(PID.TID 0000.0001)     ;
(PID.TID 0000.0001) dTtracerLev =  /* Tracer equation timestep ( s ) */
(PID.TID 0000.0001)    90 @  3.000000000000000E+02              /* K =  1: 90 */
(PID.TID 0000.0001)     ;
(PID.TID 0000.0001) deltaTClock  =   /* Model clock timestep ( s ) */
(PID.TID 0000.0001)                 3.000000000000000E+02
(PID.TID 0000.0001)     ;
(PID.TID 0000.0001) cAdjFreq =   /* Convective adjustment interval ( s ) */
(PID.TID 0000.0001)                 3.000000000000000E+02
(PID.TID 0000.0001)     ;
(PID.TID 0000.0001) momForcingOutAB = /* =1: take Momentum Forcing out of Adams-Bash. stepping */
(PID.TID 0000.0001)                       1
(PID.TID 0000.0001)     ;
(PID.TID 0000.0001) tracForcingOutAB = /* =1: take T,S,pTr Forcing out of Adams-Bash. stepping */
(PID.TID 0000.0001)                       1
(PID.TID 0000.0001)     ;
(PID.TID 0000.0001) momDissip_In_AB = /* put Dissipation Tendency in Adams-Bash. stepping */
(PID.TID 0000.0001)                   T
(PID.TID 0000.0001)     ;
(PID.TID 0000.0001) doAB_onGtGs = /* apply AB on Tendencies (rather than on T,S)*/
(PID.TID 0000.0001)                   T
(PID.TID 0000.0001)     ;
(PID.TID 0000.0001) abEps =   /* Adams-Bashforth-2 stabilizing weight */
(PID.TID 0000.0001)                 1.000000000000000E-01
(PID.TID 0000.0001)     ;
(PID.TID 0000.0001) applyExchUV_early = /* Apply EXCH to U,V earlier in time-step */
(PID.TID 0000.0001)                   F
(PID.TID 0000.0001)     ;
(PID.TID 0000.0001) pickupStrictlyMatch= /* stop if pickup do not strictly match */
(PID.TID 0000.0001)                   T
(PID.TID 0000.0001)     ;
(PID.TID 0000.0001) nIter0   =   /* Run starting timestep number */
(PID.TID 0000.0001)                   11395
(PID.TID 0000.0001)     ;
(PID.TID 0000.0001) nTimeSteps = /* Number of timesteps */
(PID.TID 0000.0001)                      20
(PID.TID 0000.0001)     ;
(PID.TID 0000.0001) nEndIter =   /* Run ending timestep number */
(PID.TID 0000.0001)                   11415
(PID.TID 0000.0001)     ;
(PID.TID 0000.0001) baseTime =   /* Model base time ( s ) */
(PID.TID 0000.0001)                 0.000000000000000E+00
(PID.TID 0000.0001)     ;
(PID.TID 0000.0001) startTime =  /* Run start time ( s ) */
(PID.TID 0000.0001)                 3.418500000000000E+06
(PID.TID 0000.0001)     ;
(PID.TID 0000.0001) endTime  =   /* Integration ending time ( s ) */
(PID.TID 0000.0001)                 3.424500000000000E+06
(PID.TID 0000.0001)     ;
(PID.TID 0000.0001) pChkPtFreq = /* Permanent restart/pickup file interval ( s ) */
(PID.TID 0000.0001)                 3.110400000000000E+07
(PID.TID 0000.0001)     ;
(PID.TID 0000.0001) chkPtFreq  = /* Rolling restart/pickup file interval ( s ) */
(PID.TID 0000.0001)                 7.776000000000000E+06
(PID.TID 0000.0001)     ;
(PID.TID 0000.0001) pickup_write_mdsio =   /* Model IO flag. */
(PID.TID 0000.0001)                   T
(PID.TID 0000.0001)     ;
(PID.TID 0000.0001) pickup_read_mdsio =   /* Model IO flag. */
(PID.TID 0000.0001)                   T
(PID.TID 0000.0001)     ;
(PID.TID 0000.0001) writePickupAtEnd =   /* Model IO flag. */
(PID.TID 0000.0001)                   T
(PID.TID 0000.0001)     ;
(PID.TID 0000.0001) dumpFreq =   /* Model state write out interval ( s ). */
(PID.TID 0000.0001)                 3.000000000000000E+03
(PID.TID 0000.0001)     ;
(PID.TID 0000.0001) dumpInitAndLast= /* write out Initial & Last iter. model state */
(PID.TID 0000.0001)                   T
(PID.TID 0000.0001)     ;
(PID.TID 0000.0001) snapshot_mdsio =   /* Model IO flag. */
(PID.TID 0000.0001)                   T
(PID.TID 0000.0001)     ;
(PID.TID 0000.0001) monitorFreq =   /* Monitor output interval ( s ). */
(PID.TID 0000.0001)                 1.000000000000000E+00
(PID.TID 0000.0001)     ;
(PID.TID 0000.0001) monitorSelect = /* select group of variables to monitor */
(PID.TID 0000.0001)                       1
(PID.TID 0000.0001)     ;
(PID.TID 0000.0001) monitor_stdio =   /* Model IO flag. */
(PID.TID 0000.0001)                   T
(PID.TID 0000.0001)     ;
(PID.TID 0000.0001) externForcingPeriod =   /* forcing period (s) */
(PID.TID 0000.0001)                 0.000000000000000E+00
(PID.TID 0000.0001)     ;
(PID.TID 0000.0001) externForcingCycle =   /* period of the cyle (s). */
(PID.TID 0000.0001)                 0.000000000000000E+00
(PID.TID 0000.0001)     ;
(PID.TID 0000.0001) tauThetaClimRelax =   /* relaxation time scale (s) */
(PID.TID 0000.0001)                 0.000000000000000E+00
(PID.TID 0000.0001)     ;
(PID.TID 0000.0001) tauSaltClimRelax =   /* relaxation time scale (s) */
(PID.TID 0000.0001)                 0.000000000000000E+00
(PID.TID 0000.0001)     ;
(PID.TID 0000.0001) latBandClimRelax =   /* max. Lat. where relaxation */
(PID.TID 0000.0001)                 1.800000000000000E+02
(PID.TID 0000.0001)     ;
(PID.TID 0000.0001) //
(PID.TID 0000.0001) // Gridding paramters ( PARM04 in namelist )
(PID.TID 0000.0001) //
(PID.TID 0000.0001) usingCartesianGrid = /* Cartesian coordinates flag ( True/False ) */
(PID.TID 0000.0001)                   F
(PID.TID 0000.0001)     ;
(PID.TID 0000.0001) usingCylindricalGrid = /* Cylindrical coordinates flag ( True/False ) */
(PID.TID 0000.0001)                   F
(PID.TID 0000.0001)     ;
(PID.TID 0000.0001) usingSphericalPolarGrid = /* Spherical coordinates flag ( True/False ) */
(PID.TID 0000.0001)                   T
(PID.TID 0000.0001)     ;
(PID.TID 0000.0001) usingCurvilinearGrid = /* Curvilinear coordinates flag ( True/False ) */
(PID.TID 0000.0001)                   F
(PID.TID 0000.0001)     ;
(PID.TID 0000.0001) useMin4hFacEdges = /* set hFacW,S as minimum of adjacent hFacC factor */
(PID.TID 0000.0001)                   T
(PID.TID 0000.0001)     ;
(PID.TID 0000.0001) interViscAr_pCell = /* account for partial-cell in interior vert. viscosity */
(PID.TID 0000.0001)                   F
(PID.TID 0000.0001)     ;
(PID.TID 0000.0001) interDiffKr_pCell = /* account for partial-cell in interior vert. diffusion */
(PID.TID 0000.0001)                   F
(PID.TID 0000.0001)     ;
(PID.TID 0000.0001) pCellMix_select = /* option to enhance mixing near surface & bottom */
(PID.TID 0000.0001)                       0
(PID.TID 0000.0001)     ;
(PID.TID 0000.0001) selectSigmaCoord = /* Hybrid-Sigma Vert. Coordinate option */
(PID.TID 0000.0001)                       0
(PID.TID 0000.0001)     ;
(PID.TID 0000.0001) rSigmaBnd = /* r/sigma transition ( units of r ==  m ) */
(PID.TID 0000.0001)                 1.234567000000000E+05
(PID.TID 0000.0001)     ;
(PID.TID 0000.0001) rkSign =   /* index orientation relative to vertical coordinate */
(PID.TID 0000.0001)                -1.000000000000000E+00
(PID.TID 0000.0001)     ;
(PID.TID 0000.0001) gravitySign = /* gravity orientation relative to vertical coordinate */
(PID.TID 0000.0001)                -1.000000000000000E+00
(PID.TID 0000.0001)     ;
(PID.TID 0000.0001) seaLev_Z =  /* reference height of sea-level [m] */
(PID.TID 0000.0001)                 0.000000000000000E+00
(PID.TID 0000.0001)     ;
(PID.TID 0000.0001) top_Pres =  /* reference pressure at the top [Pa] */
(PID.TID 0000.0001)                 0.000000000000000E+00
(PID.TID 0000.0001)     ;
(PID.TID 0000.0001) mass2rUnit = /* convert mass per unit area [kg/m2] to r-units [m] */
(PID.TID 0000.0001)                 1.000000000000000E-03
(PID.TID 0000.0001)     ;
(PID.TID 0000.0001) rUnit2mass = /* convert r-units [m] to mass per unit area [kg/m2] */
(PID.TID 0000.0001)                 1.000000000000000E+03
(PID.TID 0000.0001)     ;
(PID.TID 0000.0001) drC =   /* C spacing ( units of r ) */
(PID.TID 0000.0001)                 5.000000000000000E+00,      /* K =  1 */
(PID.TID 0000.0001)    89 @  1.000000000000000E+01,             /* K =  2: 90 */
(PID.TID 0000.0001)                 5.000000000000000E+00       /* K = 91 */
(PID.TID 0000.0001)     ;
(PID.TID 0000.0001) drF =   /* W spacing ( units of r ) */
(PID.TID 0000.0001)    90 @  1.000000000000000E+01              /* K =  1: 90 */
(PID.TID 0000.0001)     ;
(PID.TID 0000.0001) delX = /* U spacing ( m - cartesian, degrees - spherical ) */
(PID.TID 0000.0001)     3 @  1.250000000000000E-01              /* I =  1:  3 */
(PID.TID 0000.0001)     ;
(PID.TID 0000.0001) delY = /* V spacing ( m - cartesian, degrees - spherical ) */
(PID.TID 0000.0001)   200 @  7.812500000000000E-03              /* J =  1:200 */
(PID.TID 0000.0001)     ;
(PID.TID 0000.0001) xgOrigin = /* X-axis origin of West  edge (cartesian: m, lat-lon: deg) */
(PID.TID 0000.0001)                -1.055000000000000E+02
(PID.TID 0000.0001)     ;
(PID.TID 0000.0001) ygOrigin = /* Y-axis origin of South edge (cartesian: m, lat-lon: deg) */
(PID.TID 0000.0001)                -7.544570000000000E+01
(PID.TID 0000.0001)     ;
(PID.TID 0000.0001) rSphere =  /* Radius ( ignored - cartesian, m - spherical ) */
(PID.TID 0000.0001)                 6.370000000000000E+06
(PID.TID 0000.0001)     ;
(PID.TID 0000.0001) deepAtmosphere = /* Deep/Shallow Atmosphere flag (True/False) */
(PID.TID 0000.0001)                   F
(PID.TID 0000.0001)     ;
(PID.TID 0000.0001) xC =  /* xC(:,1,:,1) : P-point X coord ( deg. or m if cartesian) */
(PID.TID 0000.0001)                -1.054375000000000E+02,      /* I =  1 */
(PID.TID 0000.0001)                -1.053125000000000E+02,      /* I =  2 */
(PID.TID 0000.0001)                -1.051875000000000E+02       /* I =  3 */
(PID.TID 0000.0001)     ;
(PID.TID 0000.0001) yC =  /* yC(1,:,1,:) : P-point Y coord ( deg. or m if cartesian) */
(PID.TID 0000.0001)                -7.544179375000000E+01,      /* J =  1 */
(PID.TID 0000.0001)                -7.543398125000000E+01,      /* J =  2 */
(PID.TID 0000.0001)                -7.542616875000000E+01,      /* J =  3 */
(PID.TID 0000.0001)      . . .
(PID.TID 0000.0001)                -7.507460625000000E+01,      /* J = 48 */
(PID.TID 0000.0001)                -7.506679375000000E+01,      /* J = 49 */
(PID.TID 0000.0001)                -7.505898125000000E+01,      /* J = 50 */
(PID.TID 0000.0001)                -7.505116875000000E+01,      /* J = 51 */
(PID.TID 0000.0001)                -7.504335625000000E+01,      /* J = 52 */
(PID.TID 0000.0001)                -7.503554375000000E+01,      /* J = 53 */
(PID.TID 0000.0001)      . . .
(PID.TID 0000.0001)                -7.468398125000000E+01,      /* J = 98 */
(PID.TID 0000.0001)                -7.467616875000000E+01,      /* J = 99 */
(PID.TID 0000.0001)                -7.466835625000000E+01,      /* J =100 */
(PID.TID 0000.0001)                -7.466054375000000E+01,      /* J =101 */
(PID.TID 0000.0001)                -7.465273125000000E+01,      /* J =102 */
(PID.TID 0000.0001)                -7.464491875000000E+01,      /* J =103 */
(PID.TID 0000.0001)      . . .
(PID.TID 0000.0001)                -7.429335625000000E+01,      /* J =148 */
(PID.TID 0000.0001)                -7.428554375000000E+01,      /* J =149 */
(PID.TID 0000.0001)                -7.427773125000000E+01,      /* J =150 */
(PID.TID 0000.0001)                -7.426991875000000E+01,      /* J =151 */
(PID.TID 0000.0001)                -7.426210625000000E+01,      /* J =152 */
(PID.TID 0000.0001)                -7.425429375000000E+01,      /* J =153 */
(PID.TID 0000.0001)      . . .
(PID.TID 0000.0001)                -7.390273125000000E+01,      /* J =198 */
(PID.TID 0000.0001)                -7.389491875000000E+01,      /* J =199 */
(PID.TID 0000.0001)                -7.388710625000000E+01       /* J =200 */
(PID.TID 0000.0001)     ;
(PID.TID 0000.0001) rcoord = /* P-point R coordinate (  units of r ) */
(PID.TID 0000.0001)                -5.000000000000000E+00,      /* K =  1 */
(PID.TID 0000.0001)                -1.500000000000000E+01,      /* K =  2 */
(PID.TID 0000.0001)                -2.500000000000000E+01,      /* K =  3 */
(PID.TID 0000.0001)                -3.500000000000000E+01,      /* K =  4 */
(PID.TID 0000.0001)                -4.500000000000000E+01,      /* K =  5 */
(PID.TID 0000.0001)                -5.500000000000000E+01,      /* K =  6 */
(PID.TID 0000.0001)                -6.500000000000000E+01,      /* K =  7 */
(PID.TID 0000.0001)                -7.500000000000000E+01,      /* K =  8 */
(PID.TID 0000.0001)                -8.500000000000000E+01,      /* K =  9 */
(PID.TID 0000.0001)                -9.500000000000000E+01,      /* K = 10 */
(PID.TID 0000.0001)                -1.050000000000000E+02,      /* K = 11 */
(PID.TID 0000.0001)                -1.150000000000000E+02,      /* K = 12 */
(PID.TID 0000.0001)                -1.250000000000000E+02,      /* K = 13 */
(PID.TID 0000.0001)                -1.350000000000000E+02,      /* K = 14 */
(PID.TID 0000.0001)                -1.450000000000000E+02,      /* K = 15 */
(PID.TID 0000.0001)                -1.550000000000000E+02,      /* K = 16 */
(PID.TID 0000.0001)                -1.650000000000000E+02,      /* K = 17 */
(PID.TID 0000.0001)                -1.750000000000000E+02,      /* K = 18 */
(PID.TID 0000.0001)                -1.850000000000000E+02,      /* K = 19 */
(PID.TID 0000.0001)                -1.950000000000000E+02,      /* K = 20 */
(PID.TID 0000.0001)                -2.050000000000000E+02,      /* K = 21 */
(PID.TID 0000.0001)                -2.150000000000000E+02,      /* K = 22 */
(PID.TID 0000.0001)                -2.250000000000000E+02,      /* K = 23 */
(PID.TID 0000.0001)                -2.350000000000000E+02,      /* K = 24 */
(PID.TID 0000.0001)                -2.450000000000000E+02,      /* K = 25 */
(PID.TID 0000.0001)                -2.550000000000000E+02,      /* K = 26 */
(PID.TID 0000.0001)                -2.650000000000000E+02,      /* K = 27 */
(PID.TID 0000.0001)                -2.750000000000000E+02,      /* K = 28 */
(PID.TID 0000.0001)                -2.850000000000000E+02,      /* K = 29 */
(PID.TID 0000.0001)                -2.950000000000000E+02,      /* K = 30 */
(PID.TID 0000.0001)                -3.050000000000000E+02,      /* K = 31 */
(PID.TID 0000.0001)                -3.150000000000000E+02,      /* K = 32 */
(PID.TID 0000.0001)                -3.250000000000000E+02,      /* K = 33 */
(PID.TID 0000.0001)                -3.350000000000000E+02,      /* K = 34 */
(PID.TID 0000.0001)                -3.450000000000000E+02,      /* K = 35 */
(PID.TID 0000.0001)                -3.550000000000000E+02,      /* K = 36 */
(PID.TID 0000.0001)                -3.650000000000000E+02,      /* K = 37 */
(PID.TID 0000.0001)                -3.750000000000000E+02,      /* K = 38 */
(PID.TID 0000.0001)                -3.850000000000000E+02,      /* K = 39 */
(PID.TID 0000.0001)                -3.950000000000000E+02,      /* K = 40 */
(PID.TID 0000.0001)                -4.050000000000000E+02,      /* K = 41 */
(PID.TID 0000.0001)                -4.150000000000000E+02,      /* K = 42 */
(PID.TID 0000.0001)                -4.250000000000000E+02,      /* K = 43 */
(PID.TID 0000.0001)                -4.350000000000000E+02,      /* K = 44 */
(PID.TID 0000.0001)                -4.450000000000000E+02,      /* K = 45 */
(PID.TID 0000.0001)                -4.550000000000000E+02,      /* K = 46 */
(PID.TID 0000.0001)                -4.650000000000000E+02,      /* K = 47 */
(PID.TID 0000.0001)                -4.750000000000000E+02,      /* K = 48 */
(PID.TID 0000.0001)                -4.850000000000000E+02,      /* K = 49 */
(PID.TID 0000.0001)                -4.950000000000000E+02,      /* K = 50 */
(PID.TID 0000.0001)                -5.050000000000000E+02,      /* K = 51 */
(PID.TID 0000.0001)                -5.150000000000000E+02,      /* K = 52 */
(PID.TID 0000.0001)                -5.250000000000000E+02,      /* K = 53 */
(PID.TID 0000.0001)                -5.350000000000000E+02,      /* K = 54 */
(PID.TID 0000.0001)                -5.450000000000000E+02,      /* K = 55 */
(PID.TID 0000.0001)                -5.550000000000000E+02,      /* K = 56 */
(PID.TID 0000.0001)                -5.650000000000000E+02,      /* K = 57 */
(PID.TID 0000.0001)                -5.750000000000000E+02,      /* K = 58 */
(PID.TID 0000.0001)                -5.850000000000000E+02,      /* K = 59 */
(PID.TID 0000.0001)                -5.950000000000000E+02,      /* K = 60 */
(PID.TID 0000.0001)                -6.050000000000000E+02,      /* K = 61 */
(PID.TID 0000.0001)                -6.150000000000000E+02,      /* K = 62 */
(PID.TID 0000.0001)                -6.250000000000000E+02,      /* K = 63 */
(PID.TID 0000.0001)                -6.350000000000000E+02,      /* K = 64 */
(PID.TID 0000.0001)                -6.450000000000000E+02,      /* K = 65 */
(PID.TID 0000.0001)                -6.550000000000000E+02,      /* K = 66 */
(PID.TID 0000.0001)                -6.650000000000000E+02,      /* K = 67 */
(PID.TID 0000.0001)                -6.750000000000000E+02,      /* K = 68 */
(PID.TID 0000.0001)                -6.850000000000000E+02,      /* K = 69 */
(PID.TID 0000.0001)                -6.950000000000000E+02,      /* K = 70 */
(PID.TID 0000.0001)                -7.050000000000000E+02,      /* K = 71 */
(PID.TID 0000.0001)                -7.150000000000000E+02,      /* K = 72 */
(PID.TID 0000.0001)                -7.250000000000000E+02,      /* K = 73 */
(PID.TID 0000.0001)                -7.350000000000000E+02,      /* K = 74 */
(PID.TID 0000.0001)                -7.450000000000000E+02,      /* K = 75 */
(PID.TID 0000.0001)                -7.550000000000000E+02,      /* K = 76 */
(PID.TID 0000.0001)                -7.650000000000000E+02,      /* K = 77 */
(PID.TID 0000.0001)                -7.750000000000000E+02,      /* K = 78 */
(PID.TID 0000.0001)                -7.850000000000000E+02,      /* K = 79 */
(PID.TID 0000.0001)                -7.950000000000000E+02,      /* K = 80 */
(PID.TID 0000.0001)                -8.050000000000000E+02,      /* K = 81 */
(PID.TID 0000.0001)                -8.150000000000000E+02,      /* K = 82 */
(PID.TID 0000.0001)                -8.250000000000000E+02,      /* K = 83 */
(PID.TID 0000.0001)                -8.350000000000000E+02,      /* K = 84 */
(PID.TID 0000.0001)                -8.450000000000000E+02,      /* K = 85 */
(PID.TID 0000.0001)                -8.550000000000000E+02,      /* K = 86 */
(PID.TID 0000.0001)                -8.650000000000000E+02,      /* K = 87 */
(PID.TID 0000.0001)                -8.750000000000000E+02,      /* K = 88 */
(PID.TID 0000.0001)                -8.850000000000000E+02,      /* K = 89 */
(PID.TID 0000.0001)                -8.950000000000000E+02       /* K = 90 */
(PID.TID 0000.0001)     ;
(PID.TID 0000.0001) rF =   /* W-Interf. R coordinate (  units of r ) */
(PID.TID 0000.0001)                 0.000000000000000E+00,      /* K =  1 */
(PID.TID 0000.0001)                -1.000000000000000E+01,      /* K =  2 */
(PID.TID 0000.0001)                -2.000000000000000E+01,      /* K =  3 */
(PID.TID 0000.0001)                -3.000000000000000E+01,      /* K =  4 */
(PID.TID 0000.0001)                -4.000000000000000E+01,      /* K =  5 */
(PID.TID 0000.0001)                -5.000000000000000E+01,      /* K =  6 */
(PID.TID 0000.0001)                -6.000000000000000E+01,      /* K =  7 */
(PID.TID 0000.0001)                -7.000000000000000E+01,      /* K =  8 */
(PID.TID 0000.0001)                -8.000000000000000E+01,      /* K =  9 */
(PID.TID 0000.0001)                -9.000000000000000E+01,      /* K = 10 */
(PID.TID 0000.0001)                -1.000000000000000E+02,      /* K = 11 */
(PID.TID 0000.0001)                -1.100000000000000E+02,      /* K = 12 */
(PID.TID 0000.0001)                -1.200000000000000E+02,      /* K = 13 */
(PID.TID 0000.0001)                -1.300000000000000E+02,      /* K = 14 */
(PID.TID 0000.0001)                -1.400000000000000E+02,      /* K = 15 */
(PID.TID 0000.0001)                -1.500000000000000E+02,      /* K = 16 */
(PID.TID 0000.0001)                -1.600000000000000E+02,      /* K = 17 */
(PID.TID 0000.0001)                -1.700000000000000E+02,      /* K = 18 */
(PID.TID 0000.0001)                -1.800000000000000E+02,      /* K = 19 */
(PID.TID 0000.0001)                -1.900000000000000E+02,      /* K = 20 */
(PID.TID 0000.0001)                -2.000000000000000E+02,      /* K = 21 */
(PID.TID 0000.0001)                -2.100000000000000E+02,      /* K = 22 */
(PID.TID 0000.0001)                -2.200000000000000E+02,      /* K = 23 */
(PID.TID 0000.0001)                -2.300000000000000E+02,      /* K = 24 */
(PID.TID 0000.0001)                -2.400000000000000E+02,      /* K = 25 */
(PID.TID 0000.0001)                -2.500000000000000E+02,      /* K = 26 */
(PID.TID 0000.0001)                -2.600000000000000E+02,      /* K = 27 */
(PID.TID 0000.0001)                -2.700000000000000E+02,      /* K = 28 */
(PID.TID 0000.0001)                -2.800000000000000E+02,      /* K = 29 */
(PID.TID 0000.0001)                -2.900000000000000E+02,      /* K = 30 */
(PID.TID 0000.0001)                -3.000000000000000E+02,      /* K = 31 */
(PID.TID 0000.0001)                -3.100000000000000E+02,      /* K = 32 */
(PID.TID 0000.0001)                -3.200000000000000E+02,      /* K = 33 */
(PID.TID 0000.0001)                -3.300000000000000E+02,      /* K = 34 */
(PID.TID 0000.0001)                -3.400000000000000E+02,      /* K = 35 */
(PID.TID 0000.0001)                -3.500000000000000E+02,      /* K = 36 */
(PID.TID 0000.0001)                -3.600000000000000E+02,      /* K = 37 */
(PID.TID 0000.0001)                -3.700000000000000E+02,      /* K = 38 */
(PID.TID 0000.0001)                -3.800000000000000E+02,      /* K = 39 */
(PID.TID 0000.0001)                -3.900000000000000E+02,      /* K = 40 */
(PID.TID 0000.0001)                -4.000000000000000E+02,      /* K = 41 */
(PID.TID 0000.0001)                -4.100000000000000E+02,      /* K = 42 */
(PID.TID 0000.0001)                -4.200000000000000E+02,      /* K = 43 */
(PID.TID 0000.0001)                -4.300000000000000E+02,      /* K = 44 */
(PID.TID 0000.0001)                -4.400000000000000E+02,      /* K = 45 */
(PID.TID 0000.0001)                -4.500000000000000E+02,      /* K = 46 */
(PID.TID 0000.0001)                -4.600000000000000E+02,      /* K = 47 */
(PID.TID 0000.0001)                -4.700000000000000E+02,      /* K = 48 */
(PID.TID 0000.0001)                -4.800000000000000E+02,      /* K = 49 */
(PID.TID 0000.0001)                -4.900000000000000E+02,      /* K = 50 */
(PID.TID 0000.0001)                -5.000000000000000E+02,      /* K = 51 */
(PID.TID 0000.0001)                -5.100000000000000E+02,      /* K = 52 */
(PID.TID 0000.0001)                -5.200000000000000E+02,      /* K = 53 */
(PID.TID 0000.0001)                -5.300000000000000E+02,      /* K = 54 */
(PID.TID 0000.0001)                -5.400000000000000E+02,      /* K = 55 */
(PID.TID 0000.0001)                -5.500000000000000E+02,      /* K = 56 */
(PID.TID 0000.0001)                -5.600000000000000E+02,      /* K = 57 */
(PID.TID 0000.0001)                -5.700000000000000E+02,      /* K = 58 */
(PID.TID 0000.0001)                -5.800000000000000E+02,      /* K = 59 */
(PID.TID 0000.0001)                -5.900000000000000E+02,      /* K = 60 */
(PID.TID 0000.0001)                -6.000000000000000E+02,      /* K = 61 */
(PID.TID 0000.0001)                -6.100000000000000E+02,      /* K = 62 */
(PID.TID 0000.0001)                -6.200000000000000E+02,      /* K = 63 */
(PID.TID 0000.0001)                -6.300000000000000E+02,      /* K = 64 */
(PID.TID 0000.0001)                -6.400000000000000E+02,      /* K = 65 */
(PID.TID 0000.0001)                -6.500000000000000E+02,      /* K = 66 */
(PID.TID 0000.0001)                -6.600000000000000E+02,      /* K = 67 */
(PID.TID 0000.0001)                -6.700000000000000E+02,      /* K = 68 */
(PID.TID 0000.0001)                -6.800000000000000E+02,      /* K = 69 */
(PID.TID 0000.0001)                -6.900000000000000E+02,      /* K = 70 */
(PID.TID 0000.0001)                -7.000000000000000E+02,      /* K = 71 */
(PID.TID 0000.0001)                -7.100000000000000E+02,      /* K = 72 */
(PID.TID 0000.0001)                -7.200000000000000E+02,      /* K = 73 */
(PID.TID 0000.0001)                -7.300000000000000E+02,      /* K = 74 */
(PID.TID 0000.0001)                -7.400000000000000E+02,      /* K = 75 */
(PID.TID 0000.0001)                -7.500000000000000E+02,      /* K = 76 */
(PID.TID 0000.0001)                -7.600000000000000E+02,      /* K = 77 */
(PID.TID 0000.0001)                -7.700000000000000E+02,      /* K = 78 */
(PID.TID 0000.0001)                -7.800000000000000E+02,      /* K = 79 */
(PID.TID 0000.0001)                -7.900000000000000E+02,      /* K = 80 */
(PID.TID 0000.0001)                -8.000000000000000E+02,      /* K = 81 */
(PID.TID 0000.0001)                -8.100000000000000E+02,      /* K = 82 */
(PID.TID 0000.0001)                -8.200000000000000E+02,      /* K = 83 */
(PID.TID 0000.0001)                -8.300000000000000E+02,      /* K = 84 */
(PID.TID 0000.0001)                -8.400000000000000E+02,      /* K = 85 */
(PID.TID 0000.0001)                -8.500000000000000E+02,      /* K = 86 */
(PID.TID 0000.0001)                -8.600000000000000E+02,      /* K = 87 */
(PID.TID 0000.0001)                -8.700000000000000E+02,      /* K = 88 */
(PID.TID 0000.0001)                -8.800000000000000E+02,      /* K = 89 */
(PID.TID 0000.0001)                -8.900000000000000E+02,      /* K = 90 */
(PID.TID 0000.0001)                -9.000000000000000E+02       /* K = 91 */
(PID.TID 0000.0001)     ;
(PID.TID 0000.0001) deepFacC = /* deep-model grid factor @ cell-Center (-) */
(PID.TID 0000.0001)    90 @  1.000000000000000E+00              /* K =  1: 90 */
(PID.TID 0000.0001)     ;
(PID.TID 0000.0001) deepFacF = /* deep-model grid factor @ W-Interface (-) */
(PID.TID 0000.0001)    91 @  1.000000000000000E+00              /* K =  1: 91 */
(PID.TID 0000.0001)     ;
(PID.TID 0000.0001) rVel2wUnit = /* convert units: rVel -> wSpeed (=1 if z-coord)*/
(PID.TID 0000.0001)    91 @  1.000000000000000E+00              /* K =  1: 91 */
(PID.TID 0000.0001)     ;
(PID.TID 0000.0001) wUnit2rVel = /* convert units: wSpeed -> rVel (=1 if z-coord)*/
(PID.TID 0000.0001)    91 @  1.000000000000000E+00              /* K =  1: 91 */
(PID.TID 0000.0001)     ;
(PID.TID 0000.0001) dBdrRef = /* Vertical grad. of reference buoyancy [(m/s/r)^2] */
(PID.TID 0000.0001)    90 @  0.000000000000000E+00              /* K =  1: 90 */
(PID.TID 0000.0001)     ;
(PID.TID 0000.0001) rotateGrid = /* use rotated grid ( True/False ) */
(PID.TID 0000.0001)                   F
(PID.TID 0000.0001)     ;
(PID.TID 0000.0001) phiEuler = /* Euler angle, rotation about original z-coordinate [rad] */
(PID.TID 0000.0001)                 0.000000000000000E+00
(PID.TID 0000.0001)     ;
(PID.TID 0000.0001) thetaEuler = /* Euler angle, rotation about new x-coordinate [rad] */
(PID.TID 0000.0001)                 0.000000000000000E+00
(PID.TID 0000.0001)     ;
(PID.TID 0000.0001) psiEuler = /* Euler angle, rotation about new z-coordinate [rad] */
(PID.TID 0000.0001)                 0.000000000000000E+00
(PID.TID 0000.0001)     ;
(PID.TID 0000.0001) dxF =  /* dxF(:,1,:,1) ( units: m ) */
(PID.TID 0000.0001)     3 @  3.493243558711626E+03              /* I =  1:  3 */
(PID.TID 0000.0001)     ;
(PID.TID 0000.0001) dxF =  /* dxF(1,:,1,:) ( units: m ) */
(PID.TID 0000.0001)                 3.493243558711626E+03,      /* J =  1 */
(PID.TID 0000.0001)                 3.495077619691311E+03,      /* J =  2 */
(PID.TID 0000.0001)                 3.496911615689215E+03,      /* J =  3 */
(PID.TID 0000.0001)      . . .
(PID.TID 0000.0001)                 3.579373626761998E+03,      /* J = 48 */
(PID.TID 0000.0001)                 3.581204596757318E+03,      /* J = 49 */
(PID.TID 0000.0001)                 3.583035500169550E+03,      /* J = 50 */
(PID.TID 0000.0001)                 3.584866336964656E+03,      /* J = 51 */
(PID.TID 0000.0001)                 3.586697107108589E+03,      /* J = 52 */
(PID.TID 0000.0001)                 3.588527810567320E+03,      /* J = 53 */
(PID.TID 0000.0001)      . . .
(PID.TID 0000.0001)                 3.670839895332228E+03,      /* J = 98 */
(PID.TID 0000.0001)                 3.672667494497579E+03,      /* J = 99 */
(PID.TID 0000.0001)                 3.674495025379331E+03,      /* J =100 */
(PID.TID 0000.0001)                 3.676322487943506E+03,      /* J =101 */
(PID.TID 0000.0001)                 3.678149882156126E+03,      /* J =102 */
(PID.TID 0000.0001)                 3.679977207983216E+03,      /* J =103 */
(PID.TID 0000.0001)      . . .
(PID.TID 0000.0001)                 3.762135540512856E+03,      /* J =148 */
(PID.TID 0000.0001)                 3.763959683900060E+03,      /* J =149 */
(PID.TID 0000.0001)                 3.765783757306327E+03,      /* J =150 */
(PID.TID 0000.0001)                 3.767607760697741E+03,      /* J =151 */
(PID.TID 0000.0001)                 3.769431694040391E+03,      /* J =152 */
(PID.TID 0000.0001)                 3.771255557300366E+03,      /* J =153 */
(PID.TID 0000.0001)      . . .
(PID.TID 0000.0001)                 3.853256318813865E+03,      /* J =198 */
(PID.TID 0000.0001)                 3.855076921635369E+03,      /* J =199 */
(PID.TID 0000.0001)                 3.856897452781851E+03       /* J =200 */
(PID.TID 0000.0001)     ;
(PID.TID 0000.0001) dyF =  /* dyF(:,1,:,1) ( units: m ) */
(PID.TID 0000.0001)     3 @  8.685740105628031E+02              /* I =  1:  3 */
(PID.TID 0000.0001)     ;
(PID.TID 0000.0001) dyF =  /* dyF(1,:,1,:) ( units: m ) */
(PID.TID 0000.0001)   200 @  8.685740105628031E+02              /* J =  1:200 */
(PID.TID 0000.0001)     ;
(PID.TID 0000.0001) dxG =  /* dxG(:,1,:,1) ( units: m ) */
(PID.TID 0000.0001)     3 @  3.492326503864269E+03              /* I =  1:  3 */
(PID.TID 0000.0001)     ;
(PID.TID 0000.0001) dxG =  /* dxG(1,:,1,:) ( units: m ) */
(PID.TID 0000.0001)                 3.492326503864269E+03,      /* J =  1 */
(PID.TID 0000.0001)                 3.494160597322058E+03,      /* J =  2 */
(PID.TID 0000.0001)                 3.495994625815115E+03,      /* J =  3 */
(PID.TID 0000.0001)      . . .
(PID.TID 0000.0001)                 3.578458116806316E+03,      /* J = 48 */
(PID.TID 0000.0001)                 3.580289120080414E+03,      /* J = 49 */
(PID.TID 0000.0001)                 3.582120056788447E+03,      /* J = 50 */
(PID.TID 0000.0001)                 3.583950926896370E+03,      /* J = 51 */
(PID.TID 0000.0001)                 3.585781730370146E+03,      /* J = 52 */
(PID.TID 0000.0001)                 3.587612467175734E+03,      /* J = 53 */
(PID.TID 0000.0001)      . . .
(PID.TID 0000.0001)                 3.669926070153822E+03,      /* J = 98 */
(PID.TID 0000.0001)                 3.671753703448232E+03,      /* J = 99 */
(PID.TID 0000.0001)                 3.673581268476031E+03,      /* J =100 */
(PID.TID 0000.0001)                 3.675408765203241E+03,      /* J =101 */
(PID.TID 0000.0001)                 3.677236193595885E+03,      /* J =102 */
(PID.TID 0000.0001)                 3.679063553619987E+03,      /* J =103 */
(PID.TID 0000.0001)      . . .
(PID.TID 0000.0001)                 3.761223442587002E+03,      /* J =148 */
(PID.TID 0000.0001)                 3.763047620951957E+03,      /* J =149 */
(PID.TID 0000.0001)                 3.764871729352928E+03,      /* J =150 */
(PID.TID 0000.0001)                 3.766695767756008E+03,      /* J =151 */
(PID.TID 0000.0001)                 3.768519736127280E+03,      /* J =152 */
(PID.TID 0000.0001)                 3.770343634432832E+03,      /* J =153 */
(PID.TID 0000.0001)      . . .
(PID.TID 0000.0001)                 3.852345990535555E+03,      /* J =198 */
(PID.TID 0000.0001)                 3.854166629181878E+03,      /* J =199 */
(PID.TID 0000.0001)                 3.855987196170102E+03       /* J =200 */
(PID.TID 0000.0001)     ;
(PID.TID 0000.0001) dyG =  /* dyG(:,1,:,1) ( units: m ) */
(PID.TID 0000.0001)     3 @  8.685740105628031E+02              /* I =  1:  3 */
(PID.TID 0000.0001)     ;
(PID.TID 0000.0001) dyG =  /* dyG(1,:,1,:) ( units: m ) */
(PID.TID 0000.0001)   200 @  8.685740105628031E+02              /* J =  1:200 */
(PID.TID 0000.0001)     ;
(PID.TID 0000.0001) dxC =  /* dxC(:,1,:,1) ( units: m ) */
(PID.TID 0000.0001)     3 @  3.493243558711626E+03              /* I =  1:  3 */
(PID.TID 0000.0001)     ;
(PID.TID 0000.0001) dxC =  /* dxC(1,:,1,:) ( units: m ) */
(PID.TID 0000.0001)                 3.493243558711626E+03,      /* J =  1 */
(PID.TID 0000.0001)                 3.495077619691311E+03,      /* J =  2 */
(PID.TID 0000.0001)                 3.496911615689215E+03,      /* J =  3 */
(PID.TID 0000.0001)      . . .
(PID.TID 0000.0001)                 3.579373626761998E+03,      /* J = 48 */
(PID.TID 0000.0001)                 3.581204596757318E+03,      /* J = 49 */
(PID.TID 0000.0001)                 3.583035500169550E+03,      /* J = 50 */
(PID.TID 0000.0001)                 3.584866336964656E+03,      /* J = 51 */
(PID.TID 0000.0001)                 3.586697107108589E+03,      /* J = 52 */
(PID.TID 0000.0001)                 3.588527810567320E+03,      /* J = 53 */
(PID.TID 0000.0001)      . . .
(PID.TID 0000.0001)                 3.670839895332228E+03,      /* J = 98 */
(PID.TID 0000.0001)                 3.672667494497579E+03,      /* J = 99 */
(PID.TID 0000.0001)                 3.674495025379331E+03,      /* J =100 */
(PID.TID 0000.0001)                 3.676322487943506E+03,      /* J =101 */
(PID.TID 0000.0001)                 3.678149882156126E+03,      /* J =102 */
(PID.TID 0000.0001)                 3.679977207983216E+03,      /* J =103 */
(PID.TID 0000.0001)      . . .
(PID.TID 0000.0001)                 3.762135540512856E+03,      /* J =148 */
(PID.TID 0000.0001)                 3.763959683900060E+03,      /* J =149 */
(PID.TID 0000.0001)                 3.765783757306327E+03,      /* J =150 */
(PID.TID 0000.0001)                 3.767607760697741E+03,      /* J =151 */
(PID.TID 0000.0001)                 3.769431694040391E+03,      /* J =152 */
(PID.TID 0000.0001)                 3.771255557300366E+03,      /* J =153 */
(PID.TID 0000.0001)      . . .
(PID.TID 0000.0001)                 3.853256318813865E+03,      /* J =198 */
(PID.TID 0000.0001)                 3.855076921635369E+03,      /* J =199 */
(PID.TID 0000.0001)                 3.856897452781851E+03       /* J =200 */
(PID.TID 0000.0001)     ;
(PID.TID 0000.0001) dyC =  /* dyC(:,1,:,1) ( units: m ) */
(PID.TID 0000.0001)     3 @  8.685740105628031E+02              /* I =  1:  3 */
(PID.TID 0000.0001)     ;
(PID.TID 0000.0001) dyC =  /* dyC(1,:,1,:) ( units: m ) */
(PID.TID 0000.0001)   200 @  8.685740105628031E+02              /* J =  1:200 */
(PID.TID 0000.0001)     ;
(PID.TID 0000.0001) dxV =  /* dxV(:,1,:,1) ( units: m ) */
(PID.TID 0000.0001)     3 @  3.492326503864269E+03              /* I =  1:  3 */
(PID.TID 0000.0001)     ;
(PID.TID 0000.0001) dxV =  /* dxV(1,:,1,:) ( units: m ) */
(PID.TID 0000.0001)                 3.492326503864269E+03,      /* J =  1 */
(PID.TID 0000.0001)                 3.494160597322058E+03,      /* J =  2 */
(PID.TID 0000.0001)                 3.495994625815115E+03,      /* J =  3 */
(PID.TID 0000.0001)      . . .
(PID.TID 0000.0001)                 3.578458116806316E+03,      /* J = 48 */
(PID.TID 0000.0001)                 3.580289120080414E+03,      /* J = 49 */
(PID.TID 0000.0001)                 3.582120056788447E+03,      /* J = 50 */
(PID.TID 0000.0001)                 3.583950926896370E+03,      /* J = 51 */
(PID.TID 0000.0001)                 3.585781730370146E+03,      /* J = 52 */
(PID.TID 0000.0001)                 3.587612467175734E+03,      /* J = 53 */
(PID.TID 0000.0001)      . . .
(PID.TID 0000.0001)                 3.669926070153822E+03,      /* J = 98 */
(PID.TID 0000.0001)                 3.671753703448232E+03,      /* J = 99 */
(PID.TID 0000.0001)                 3.673581268476031E+03,      /* J =100 */
(PID.TID 0000.0001)                 3.675408765203241E+03,      /* J =101 */
(PID.TID 0000.0001)                 3.677236193595885E+03,      /* J =102 */
(PID.TID 0000.0001)                 3.679063553619987E+03,      /* J =103 */
(PID.TID 0000.0001)      . . .
(PID.TID 0000.0001)                 3.761223442587002E+03,      /* J =148 */
(PID.TID 0000.0001)                 3.763047620951957E+03,      /* J =149 */
(PID.TID 0000.0001)                 3.764871729352928E+03,      /* J =150 */
(PID.TID 0000.0001)                 3.766695767756008E+03,      /* J =151 */
(PID.TID 0000.0001)                 3.768519736127280E+03,      /* J =152 */
(PID.TID 0000.0001)                 3.770343634432832E+03,      /* J =153 */
(PID.TID 0000.0001)      . . .
(PID.TID 0000.0001)                 3.852345990535555E+03,      /* J =198 */
(PID.TID 0000.0001)                 3.854166629181878E+03,      /* J =199 */
(PID.TID 0000.0001)                 3.855987196170102E+03       /* J =200 */
(PID.TID 0000.0001)     ;
(PID.TID 0000.0001) dyU =  /* dyU(:,1,:,1) ( units: m ) */
(PID.TID 0000.0001)     3 @  8.685740105628031E+02              /* I =  1:  3 */
(PID.TID 0000.0001)     ;
(PID.TID 0000.0001) dyU =  /* dyU(1,:,1,:) ( units: m ) */
(PID.TID 0000.0001)   200 @  8.685740105628031E+02              /* J =  1:200 */
(PID.TID 0000.0001)     ;
(PID.TID 0000.0001) rA  =  /* rA (:,1,:,1) ( units: m^2 ) */
(PID.TID 0000.0001)     3 @  3.034140565311787E+06              /* I =  1:  3 */
(PID.TID 0000.0001)     ;
(PID.TID 0000.0001) rA  =  /* rA (1,:,1,:) ( units: m^2 ) */
(PID.TID 0000.0001)                 3.034140565311787E+06,      /* J =  1 */
(PID.TID 0000.0001)                 3.035733583016748E+06,      /* J =  2 */
(PID.TID 0000.0001)                 3.037326544268204E+06,      /* J =  3 */
(PID.TID 0000.0001)      . . .
(PID.TID 0000.0001)                 3.108950903892753E+06,      /* J = 48 */
(PID.TID 0000.0001)                 3.110541236842415E+06,      /* J = 49 */
(PID.TID 0000.0001)                 3.112131511962616E+06,      /* J = 50 */
(PID.TID 0000.0001)                 3.113721729214045E+06,      /* J = 51 */
(PID.TID 0000.0001)                 3.115311888586871E+06,      /* J = 52 */
(PID.TID 0000.0001)                 3.116901990022127E+06,      /* J = 53 */
(PID.TID 0000.0001)      . . .
(PID.TID 0000.0001)                 3.188396127550019E+06,      /* J = 98 */
(PID.TID 0000.0001)                 3.189983532691603E+06,      /* J = 99 */
(PID.TID 0000.0001)                 3.191570878509831E+06,      /* J =100 */
(PID.TID 0000.0001)                 3.193158165004705E+06,      /* J =101 */
(PID.TID 0000.0001)                 3.194745392117253E+06,      /* J =102 */
(PID.TID 0000.0001)                 3.196332559837649E+06,      /* J =103 */
(PID.TID 0000.0001)      . . .
(PID.TID 0000.0001)                 3.267693152168335E+06,      /* J =148 */
(PID.TID 0000.0001)                 3.269277555701464E+06,      /* J =149 */
(PID.TID 0000.0001)                 3.270861898466484E+06,      /* J =150 */
(PID.TID 0000.0001)                 3.272446180404426E+06,      /* J =151 */
(PID.TID 0000.0001)                 3.274030401495632E+06,      /* J =152 */
(PID.TID 0000.0001)                 3.275614561720447E+06,      /* J =153 */
(PID.TID 0000.0001)      . . .
(PID.TID 0000.0001)                 3.346838291964839E+06,      /* J =198 */
(PID.TID 0000.0001)                 3.348419620256216E+06,      /* J =199 */
(PID.TID 0000.0001)                 3.350000886305247E+06       /* J =200 */
(PID.TID 0000.0001)     ;
(PID.TID 0000.0001) rAw =  /* rAw(:,1,:,1) ( units: m^2 ) */
(PID.TID 0000.0001)     3 @  3.034140565311787E+06              /* I =  1:  3 */
(PID.TID 0000.0001)     ;
(PID.TID 0000.0001) rAw =  /* rAw(1,:,1,:) ( units: m^2 ) */
(PID.TID 0000.0001)                 3.034140565311787E+06,      /* J =  1 */
(PID.TID 0000.0001)                 3.035733583016748E+06,      /* J =  2 */
(PID.TID 0000.0001)                 3.037326544268204E+06,      /* J =  3 */
(PID.TID 0000.0001)      . . .
(PID.TID 0000.0001)                 3.108950903892753E+06,      /* J = 48 */
(PID.TID 0000.0001)                 3.110541236842415E+06,      /* J = 49 */
(PID.TID 0000.0001)                 3.112131511962616E+06,      /* J = 50 */
(PID.TID 0000.0001)                 3.113721729214045E+06,      /* J = 51 */
(PID.TID 0000.0001)                 3.115311888586871E+06,      /* J = 52 */
(PID.TID 0000.0001)                 3.116901990022127E+06,      /* J = 53 */
(PID.TID 0000.0001)      . . .
(PID.TID 0000.0001)                 3.188396127550019E+06,      /* J = 98 */
(PID.TID 0000.0001)                 3.189983532691603E+06,      /* J = 99 */
(PID.TID 0000.0001)                 3.191570878509831E+06,      /* J =100 */
(PID.TID 0000.0001)                 3.193158165004705E+06,      /* J =101 */
(PID.TID 0000.0001)                 3.194745392117253E+06,      /* J =102 */
(PID.TID 0000.0001)                 3.196332559837649E+06,      /* J =103 */
(PID.TID 0000.0001)      . . .
(PID.TID 0000.0001)                 3.267693152168335E+06,      /* J =148 */
(PID.TID 0000.0001)                 3.269277555701464E+06,      /* J =149 */
(PID.TID 0000.0001)                 3.270861898466484E+06,      /* J =150 */
(PID.TID 0000.0001)                 3.272446180404426E+06,      /* J =151 */
(PID.TID 0000.0001)                 3.274030401495632E+06,      /* J =152 */
(PID.TID 0000.0001)                 3.275614561720447E+06,      /* J =153 */
(PID.TID 0000.0001)      . . .
(PID.TID 0000.0001)                 3.346838291964839E+06,      /* J =198 */
(PID.TID 0000.0001)                 3.348419620256216E+06,      /* J =199 */
(PID.TID 0000.0001)                 3.350000886305247E+06       /* J =200 */
(PID.TID 0000.0001)     ;
(PID.TID 0000.0001) rAs =  /* rAs(:,1,:,1) ( units: m^2 ) */
(PID.TID 0000.0001)     3 @  3.033344035308899E+06              /* I =  1:  3 */
(PID.TID 0000.0001)     ;
(PID.TID 0000.0001) rAs =  /* rAs(1,:,1,:) ( units: m^2 ) */
(PID.TID 0000.0001)                 3.033344035308899E+06,      /* J =  1 */
(PID.TID 0000.0001)                 3.034937081211127E+06,      /* J =  2 */
(PID.TID 0000.0001)                 3.036530070699164E+06,      /* J =  3 */
(PID.TID 0000.0001)      . . .
(PID.TID 0000.0001)                 3.108155715741703E+06,      /* J = 48 */
(PID.TID 0000.0001)                 3.109746077586438E+06,      /* J = 49 */
(PID.TID 0000.0001)                 3.111336381641027E+06,      /* J = 50 */
(PID.TID 0000.0001)                 3.112926627817013E+06,      /* J = 51 */
(PID.TID 0000.0001)                 3.114516816134055E+06,      /* J = 52 */
(PID.TID 0000.0001)                 3.116106946543010E+06,      /* J = 53 */
(PID.TID 0000.0001)      . . .
(PID.TID 0000.0001)                 3.187602402747711E+06,      /* J = 98 */
(PID.TID 0000.0001)                 3.189189837531316E+06,      /* J = 99 */
(PID.TID 0000.0001)                 3.190777213021051E+06,      /* J =100 */
(PID.TID 0000.0001)                 3.192364529177601E+06,      /* J =101 */
(PID.TID 0000.0001)                 3.193951785981312E+06,      /* J =102 */
(PID.TID 0000.0001)                 3.195538983412527E+06,      /* J =103 */
(PID.TID 0000.0001)      . . .
(PID.TID 0000.0001)                 3.266900927619873E+06,      /* J =148 */
(PID.TID 0000.0001)                 3.268485361541970E+06,      /* J =149 */
(PID.TID 0000.0001)                 3.270069734686131E+06,      /* J =150 */
(PID.TID 0000.0001)                 3.271654047032697E+06,      /* J =151 */
(PID.TID 0000.0001)                 3.273238298552185E+06,      /* J =152 */
(PID.TID 0000.0001)                 3.274822489224938E+06,      /* J =153 */
(PID.TID 0000.0001)      . . .
(PID.TID 0000.0001)                 3.346047604486870E+06,      /* J =198 */
(PID.TID 0000.0001)                 3.347628963894507E+06,      /* J =199 */
(PID.TID 0000.0001)                 3.349210261059796E+06       /* J =200 */
(PID.TID 0000.0001)     ;
(PID.TID 0000.0001) globalArea = /* Integrated horizontal Area (m^2) */
(PID.TID 0000.0001)                 1.896206941558748E+09
(PID.TID 0000.0001)     ;
(PID.TID 0000.0001) // =======================================================
(PID.TID 0000.0001) // End of Model config. summary
(PID.TID 0000.0001) // =======================================================
(PID.TID 0000.0001) 
(PID.TID 0000.0001) == Packages configuration : Check & print summary ==
(PID.TID 0000.0001) 
(PID.TID 0000.0001) OBCS_CHECK: #define ALLOW_OBCS
(PID.TID 0000.0001) OBCS_CHECK: start summary:
(PID.TID 0000.0001) useOBCSprescribe = /* prescribe OB values */
(PID.TID 0000.0001)                   T
(PID.TID 0000.0001)     ;
(PID.TID 0000.0001) useOBCSbalance = /* balance the flow through OB */
(PID.TID 0000.0001)                   T
(PID.TID 0000.0001)     ;
(PID.TID 0000.0001) OBCSbalanceSurf = /* include surf. flux in balance */
(PID.TID 0000.0001)                   F
(PID.TID 0000.0001)     ;
(PID.TID 0000.0001) OBCS_balanceFacN = /* Northern OB Factor for balancing OB flow [-] */
(PID.TID 0000.0001)                 1.000000000000000E+00
(PID.TID 0000.0001)     ;
(PID.TID 0000.0001) OBCS_balanceFacS = /* Southern OB Factor for balancing OB flow [-] */
(PID.TID 0000.0001)                 1.000000000000000E+00
(PID.TID 0000.0001)     ;
(PID.TID 0000.0001) OBCS_balanceFacE = /* Eastern  OB Factor for balancing OB flow [-] */
(PID.TID 0000.0001)                 1.000000000000000E+00
(PID.TID 0000.0001)     ;
(PID.TID 0000.0001) OBCS_balanceFacW = /* Western  OB Factor for balancing OB flow [-] */
(PID.TID 0000.0001)                 1.000000000000000E+00
(PID.TID 0000.0001)     ;
(PID.TID 0000.0001) OBCS_uvApplyFac = /* Factor to apply to U,V 2nd column/row */
(PID.TID 0000.0001)                 1.000000000000000E+00
(PID.TID 0000.0001)     ;
(PID.TID 0000.0001) OBCS_u1_adv_T = /* Temp uses upwind adv-scheme @ OB */
(PID.TID 0000.0001)                       0
(PID.TID 0000.0001)     ;
(PID.TID 0000.0001) OBCS_u1_adv_S = /* Salt uses upwind adv-scheme @ OB */
(PID.TID 0000.0001)                       0
(PID.TID 0000.0001)     ;
(PID.TID 0000.0001) OBCS_monitorFreq = /* monitor output frequency [s] */
(PID.TID 0000.0001)                 1.000000000000000E+00
(PID.TID 0000.0001)     ;
(PID.TID 0000.0001) OBCS_monSelect = /* select group of variables to monitor */
(PID.TID 0000.0001)                       0
(PID.TID 0000.0001)     ;
(PID.TID 0000.0001) useOBCStides = /* apply tidal forcing through OB */
(PID.TID 0000.0001)                   F
(PID.TID 0000.0001)     ;
(PID.TID 0000.0001) tidalPeriod = /* (s) */
(PID.TID 0000.0001)    10 @  0.000000000000000E+00              /* I =  1: 10 */
(PID.TID 0000.0001)     ;
(PID.TID 0000.0001) OB_indexNone = /* null value for OB index (i.e. no OB) */
(PID.TID 0000.0001)                     -99
(PID.TID 0000.0001)     ;
(PID.TID 0000.0001) ======== Tile bi=   1 , bj=   1 ========
(PID.TID 0000.0001)  OB_Jn = /* Northern OB local indices */
(PID.TID 0000.0001)     9 @      200                            /* I = -2:  6 */
(PID.TID 0000.0001)  OB_Js = /* Southern OB local indices */
(PID.TID 0000.0001)     9 @      -99                            /* I = -2:  6 */
(PID.TID 0000.0001)  OB_Ie = /* Eastern OB local indices */
(PID.TID 0000.0001)   206 @      -99                            /* J = -2:203 */
(PID.TID 0000.0001)  OB_Iw = /* Western OB local indices */
(PID.TID 0000.0001)   206 @      -99                            /* J = -2:203 */
(PID.TID 0000.0001) OBCS_CHECK: end summary.
(PID.TID 0000.0001) OBCS_CHECK: #define ALLOW_ORLANSKI
(PID.TID 0000.0001) OBCS_CHECK: set-up OK
(PID.TID 0000.0001) OBCS_CHECK: check Inside Mask and OB locations: OK
(PID.TID 0000.0001) SHELFICE_CHECK: #define ALLOW_SHELFICE
(PID.TID 0000.0001) 
(PID.TID 0000.0001) SHELFICE_CHECK: start of SHELFICE config. summary
(PID.TID 0000.0001) SHELFICEisOn = /* package is turned on */
(PID.TID 0000.0001)                   T
(PID.TID 0000.0001)     ;
(PID.TID 0000.0001) useISOMIPTD = /* use simple isomip thermodynamics */
(PID.TID 0000.0001)                   F
(PID.TID 0000.0001)     ;
(PID.TID 0000.0001) SHELFICEconserve = /* use a conservative form of boundary conditions */
(PID.TID 0000.0001)                   T
(PID.TID 0000.0001)     ;
(PID.TID 0000.0001) SHELFICEboundaryLayer = /* use simple boundary layer scheme to suppress noise */
(PID.TID 0000.0001)                   T
(PID.TID 0000.0001)     ;
(PID.TID 0000.0001) SHI_withBL_realFWflux = /* use real FW Flux in boundary layer scheme */
(PID.TID 0000.0001)                   T
(PID.TID 0000.0001)     ;
(PID.TID 0000.0001) SHELFICEadvDiffHeatFlux = /* use adv.-diff. instead of just diff. heat flux into the ice shelf */
(PID.TID 0000.0001)                   F
(PID.TID 0000.0001)     ;
(PID.TID 0000.0001) SHELFICEMassStepping = /* step forward ice shelf mass/thickness */
(PID.TID 0000.0001)                   T
(PID.TID 0000.0001)     ;
(PID.TID 0000.0001) no_slip_shelfice = /* use no slip boundary conditions */
(PID.TID 0000.0001)                   F
(PID.TID 0000.0001)     ;
(PID.TID 0000.0001) SHELFICEdragLinear    = /* linear drag coefficient */
(PID.TID 0000.0001)                 0.000000000000000E+00
(PID.TID 0000.0001)     ;
(PID.TID 0000.0001) SHELFICEdragQuadratic = /* quadratic drag coefficient */
(PID.TID 0000.0001)                 7.500000000000000E-03
(PID.TID 0000.0001)     ;
(PID.TID 0000.0001) SHELFICEselectDragQuadr = /* select quadratic drag option */
(PID.TID 0000.0001)                       0
(PID.TID 0000.0001)     ;
(PID.TID 0000.0001) SHELFICElatentHeat      = /* latent heat of ice */
(PID.TID 0000.0001)                 3.340000000000000E+05
(PID.TID 0000.0001)     ;
(PID.TID 0000.0001) SHELFICEheatCapacity_Cp = /* heat capacity of ice shelf */
(PID.TID 0000.0001)                 2.000000000000000E+03
(PID.TID 0000.0001)     ;
(PID.TID 0000.0001) rhoShelfice   = /* density of ice shelf */
(PID.TID 0000.0001)                 9.170000000000000E+02
(PID.TID 0000.0001)     ;
(PID.TID 0000.0001) SHELFICEkappa = /* thermal conductivity of ice shelf */
(PID.TID 0000.0001)                 1.540000000000000E-06
(PID.TID 0000.0001)     ;
(PID.TID 0000.0001) SHELFICEthetaSurface = /* surface temperature above i.s. */
(PID.TID 0000.0001)                -2.000000000000000E+01
(PID.TID 0000.0001)     ;
(PID.TID 0000.0001) SHELFICEheatTransCoeff = /* heat transfer coefficient */
(PID.TID 0000.0001)                 1.000000000000000E-04
(PID.TID 0000.0001)     ;
(PID.TID 0000.0001) SHELFICEsaltTransCoeff = /* salt transfer coefficient */
(PID.TID 0000.0001)                 5.050000000000000E-07
(PID.TID 0000.0001)     ;
(PID.TID 0000.0001) SHELFICEuseGammaFrict = /* use velocity dependent exchange coefficients */
(PID.TID 0000.0001)                   T
(PID.TID 0000.0001)     ;
(PID.TID 0000.0001) SHI_withBL_uStarTopDz = /* compute uStar from top Dz averaged uVel,vVel */
(PID.TID 0000.0001)                   T
(PID.TID 0000.0001)     ;
(PID.TID 0000.0001) shiCdrag   = /* quadr. drag coefficient for uStar */
(PID.TID 0000.0001)                 7.500000000000000E-03
(PID.TID 0000.0001)     ;
(PID.TID 0000.0001) shiZetaN   = /* parameter for gammaTurb */
(PID.TID 0000.0001)                 5.200000000000000E-02
(PID.TID 0000.0001)     ;
(PID.TID 0000.0001) shiRc      = /* parameter for gammaTurb (not used) */
(PID.TID 0000.0001)                 2.000000000000000E-01
(PID.TID 0000.0001)     ;
(PID.TID 0000.0001) shiPrandtl = /* const. Prandtl No. for gammaTurb */
(PID.TID 0000.0001)                 1.380000000000000E+01
(PID.TID 0000.0001)     ;
(PID.TID 0000.0001) shiSchmidt = /* const. Schmidt No. for gammaTurb */
(PID.TID 0000.0001)                 2.432000000000000E+03
(PID.TID 0000.0001)     ;
(PID.TID 0000.0001) shiKinVisc = /* const. kin. viscosity for gammaTurb */
(PID.TID 0000.0001)                 1.950000000000000E-06
(PID.TID 0000.0001)     ;
(PID.TID 0000.0001) SHELFICEremeshFrequency = /* Frequency (in s) of Remeshing */
(PID.TID 0000.0001)                 3.000000000000000E+03
(PID.TID 0000.0001)     ;
(PID.TID 0000.0001) SHELFICEsplitThreshold = /* hFac remesh threshold above which cell splits */
(PID.TID 0000.0001)                 1.250000000000000E+00
(PID.TID 0000.0001)     ;
(PID.TID 0000.0001) SHELFICEmergeThreshold = /* hFac remesh threshold below which cell merges */
(PID.TID 0000.0001)                 2.400000000000000E-01
(PID.TID 0000.0001)     ;
(PID.TID 0000.0001) SHELFICEloadAnomalyFile = /* file name of loaded loadAnomaly field */
(PID.TID 0000.0001)               ''
(PID.TID 0000.0001)     ;
(PID.TID 0000.0001) SHELFICEmassFile = /* file name of loaded mass field */
(PID.TID 0000.0001)               'shelficemassinit.bin'
(PID.TID 0000.0001)     ;
(PID.TID 0000.0001) SHELFICEtopoFile = /* file name of loaded under-ice topography */
(PID.TID 0000.0001)               'shelftopo.round.bin'
(PID.TID 0000.0001)     ;
(PID.TID 0000.0001) SHELFICEMassDynTendFile = /* file name of loaded dynamic mass tendency field */
(PID.TID 0000.0001)               ''
(PID.TID 0000.0001)     ;
(PID.TID 0000.0001) SHELFICEwriteState  = /* do simple standard output */
(PID.TID 0000.0001)                   T
(PID.TID 0000.0001)     ;
(PID.TID 0000.0001) SHELFICE_dump_mdsio = /* use mdsio for snapshots */
(PID.TID 0000.0001)                   T
(PID.TID 0000.0001)     ;
(PID.TID 0000.0001) SHELFICE_tave_mdsio = /* use mdsio for time averages */
(PID.TID 0000.0001)                   T
(PID.TID 0000.0001)     ;
(PID.TID 0000.0001) SHELFICE_dump_mnc   = /* use netcdf for snapshots */
(PID.TID 0000.0001)                   F
(PID.TID 0000.0001)     ;
(PID.TID 0000.0001) SHELFICE_tave_mnc   = /* use netcdf for time averages */
(PID.TID 0000.0001)                   F
(PID.TID 0000.0001)     ;
(PID.TID 0000.0001) SHELFICE_dumpFreq = /* analoguous to dumpFreq */
(PID.TID 0000.0001)                 3.000000000000000E+03
(PID.TID 0000.0001)     ;
(PID.TID 0000.0001) SHELFICE_taveFreq = /* analoguous to taveFreq */
(PID.TID 0000.0001)                 0.000000000000000E+00
(PID.TID 0000.0001)     ;
(PID.TID 0000.0001) SHELFICE_CHECK: end of SHELFICE config. summary
(PID.TID 0000.0001) STREAMICE_CHECK: #define STREAMICE
(PID.TID 0000.0001)  max cg interations = /* user defined parameter */
(PID.TID 0000.0001)                     700
(PID.TID 0000.0001)     ;
(PID.TID 0000.0001)  max nonlin interations = /* user defined parameter */
(PID.TID 0000.0001)                      70
(PID.TID 0000.0001)     ;
(PID.TID 0000.0001)  # of timesteps per velocity solve  = /* user defined parameter */
(PID.TID 0000.0001)                     144
(PID.TID 0000.0001)     ;
(PID.TID 0000.0001)  streamice_density = /* user defined parameter */
(PID.TID 0000.0001)                 9.170000000000000E+02
(PID.TID 0000.0001)     ;
(PID.TID 0000.0001)  streamice_density_ocean_avg = /* user defined parameter */
(PID.TID 0000.0001)                 1.028000000000000E+03
(PID.TID 0000.0001)     ;
(PID.TID 0000.0001)  glens law stifness = /* user defined parameter */
(PID.TID 0000.0001)                 7.000000000000000E+02
(PID.TID 0000.0001)     ;
(PID.TID 0000.0001)  glens law exponent = /* user defined parameter */
(PID.TID 0000.0001)                 3.000000000000000E+00
(PID.TID 0000.0001)     ;
(PID.TID 0000.0001)  basal trac coeff = /* user defined parameter */
(PID.TID 0000.0001)                 5.000000000000000E+00
(PID.TID 0000.0001)     ;
(PID.TID 0000.0001)  basal exponent = /* user defined parameter */
(PID.TID 0000.0001)                 1.000000000000000E+00
(PID.TID 0000.0001)     ;
(PID.TID 0000.0001)  uniform input flux (m^2/a) = /* user defined parameter */
(PID.TID 0000.0001)                 0.000000000000000E+00
(PID.TID 0000.0001)     ;
(PID.TID 0000.0001)  time for ice vel update (sec) = /* user defined parameter */
(PID.TID 0000.0001)                 4.320000000000000E+04
(PID.TID 0000.0001)     ;
(PID.TID 0000.0001)  conj grad tolerance = /* user defined parameter */
(PID.TID 0000.0001)                 1.000000000000000E-06
(PID.TID 0000.0001)     ;
(PID.TID 0000.0001)  ice velocity nonlinear iter tol = /* user defined parameter */
(PID.TID 0000.0001)                 1.000000000000000E-06
(PID.TID 0000.0001)     ;
(PID.TID 0000.0001)  max shelf draft for analytic init (m) = /* user defined parameter */
(PID.TID 0000.0001)                 0.000000000000000E+00
(PID.TID 0000.0001)     ;
(PID.TID 0000.0001)  min shelf draft for analytic init (m) = /* user defined parameter */
(PID.TID 0000.0001)                 0.000000000000000E+00
(PID.TID 0000.0001)     ;
(PID.TID 0000.0001)  shelf extent for analytic init (km) = /* user defined parameter */
(PID.TID 0000.0001)                 0.000000000000000E+00
(PID.TID 0000.0001)     ;
(PID.TID 0000.0001)  slope scale for analytic init (km) = /* user defined parameter */
(PID.TID 0000.0001)                 0.000000000000000E+00
(PID.TID 0000.0001)     ;
(PID.TID 0000.0001)  flat shelf width for analytic init (km) = /* user defined parameter */
(PID.TID 0000.0001)                 0.000000000000000E+00
(PID.TID 0000.0001)     ;
(PID.TID 0000.0001)  flow direction for analytic init = /* user defined parameter */
(PID.TID 0000.0001)                 0.000000000000000E+00
(PID.TID 0000.0001)     ;
(PID.TID 0000.0001)  min range on no bd for no-slip (km) = /* user defined parameter */
(PID.TID 0000.0001)                -2.000000000000000E+02
(PID.TID 0000.0001)     ;
(PID.TID 0000.0001)  max range on no bd for no-slip (km) = /* user defined parameter */
(PID.TID 0000.0001)                 0.000000000000000E+00
(PID.TID 0000.0001)     ;
(PID.TID 0000.0001)  min range on so bd for no-slip (km) = /* user defined parameter */
(PID.TID 0000.0001)                -2.000000000000000E+02
(PID.TID 0000.0001)     ;
(PID.TID 0000.0001)  max range on so bd for no-slip (km) = /* user defined parameter */
(PID.TID 0000.0001)                 0.000000000000000E+00
(PID.TID 0000.0001)     ;
(PID.TID 0000.0001)  min range on east bd for no-slip (km) = /* user defined parameter */
(PID.TID 0000.0001)                -1.800000000000000E+02
(PID.TID 0000.0001)     ;
(PID.TID 0000.0001)  max range on east bd for no-slip (km) = /* user defined parameter */
(PID.TID 0000.0001)                 0.000000000000000E+00
(PID.TID 0000.0001)     ;
(PID.TID 0000.0001)  min range on west bd for no-slip (km) = /* user defined parameter */
(PID.TID 0000.0001)                 0.000000000000000E+00
(PID.TID 0000.0001)     ;
(PID.TID 0000.0001)  max range on west bd for no-slip (km) = /* user defined parameter */
(PID.TID 0000.0001)                 0.000000000000000E+00
(PID.TID 0000.0001)     ;
(PID.TID 0000.0001)  min range on no bd for no-stress (km) = /* user defined parameter */
(PID.TID 0000.0001)                 0.000000000000000E+00
(PID.TID 0000.0001)     ;
(PID.TID 0000.0001)  max range on no bd for no-stress (km) = /* user defined parameter */
(PID.TID 0000.0001)                 0.000000000000000E+00
(PID.TID 0000.0001)     ;
(PID.TID 0000.0001)  min range on so bd for no-stress (km) = /* user defined parameter */
(PID.TID 0000.0001)                 0.000000000000000E+00
(PID.TID 0000.0001)     ;
(PID.TID 0000.0001)  max range on so bd for no-stress (km) = /* user defined parameter */
(PID.TID 0000.0001)                 0.000000000000000E+00
(PID.TID 0000.0001)     ;
(PID.TID 0000.0001)  min range on east bd for no-stress (km) = /* user defined parameter */
(PID.TID 0000.0001)                -1.000000000000000E+00
(PID.TID 0000.0001)     ;
(PID.TID 0000.0001)  max range on east bd for no-stress (km) = /* user defined parameter */
(PID.TID 0000.0001)                -1.000000000000000E+00
(PID.TID 0000.0001)     ;
(PID.TID 0000.0001)  min range on west bd for no-stress (km) = /* user defined parameter */
(PID.TID 0000.0001)                -1.000000000000000E+00
(PID.TID 0000.0001)     ;
(PID.TID 0000.0001)  max range on west bd for no-stress (km) = /* user defined parameter */
(PID.TID 0000.0001)                -1.000000000000000E+00
(PID.TID 0000.0001)     ;
(PID.TID 0000.0001)  min range on no bd for FluxBdry (km) = /* user defined parameter */
(PID.TID 0000.0001)                -1.000000000000000E+00
(PID.TID 0000.0001)     ;
(PID.TID 0000.0001)  max range on no bd for FluxBdry (km) = /* user defined parameter */
(PID.TID 0000.0001)                -1.000000000000000E+00
(PID.TID 0000.0001)     ;
(PID.TID 0000.0001)  min range on so bd for FluxBdry (km) = /* user defined parameter */
(PID.TID 0000.0001)                -1.000000000000000E+00
(PID.TID 0000.0001)     ;
(PID.TID 0000.0001)  max range on so bd for FluxBdry (km) = /* user defined parameter */
(PID.TID 0000.0001)                -1.000000000000000E+00
(PID.TID 0000.0001)     ;
(PID.TID 0000.0001)  min range on east bd for FluxBdry (km) = /* user defined parameter */
(PID.TID 0000.0001)                -1.800000000000000E+02
(PID.TID 0000.0001)     ;
(PID.TID 0000.0001)  max range on east bd for FluxBdry (km) = /* user defined parameter */
(PID.TID 0000.0001)                 0.000000000000000E+00
(PID.TID 0000.0001)     ;
(PID.TID 0000.0001)  min range on west bd for FluxBdry (km) = /* user defined parameter */
(PID.TID 0000.0001)                 0.000000000000000E+00
(PID.TID 0000.0001)     ;
(PID.TID 0000.0001)  max range on west bd for FluxBdry (km) = /* user defined parameter */
(PID.TID 0000.0001)                 0.000000000000000E+00
(PID.TID 0000.0001)     ;
(PID.TID 0000.0001)  min range on no bd for Dirich (km) = /* user defined parameter */
(PID.TID 0000.0001)                -1.000000000000000E+00
(PID.TID 0000.0001)     ;
(PID.TID 0000.0001)  max range on no bd for Dirich (km) = /* user defined parameter */
(PID.TID 0000.0001)                -1.000000000000000E+00
(PID.TID 0000.0001)     ;
(PID.TID 0000.0001)  min range on so bd for Dirich (km) = /* user defined parameter */
(PID.TID 0000.0001)                -1.000000000000000E+00
(PID.TID 0000.0001)     ;
(PID.TID 0000.0001)  max range on so bd for Dirich (km) = /* user defined parameter */
(PID.TID 0000.0001)                -1.000000000000000E+00
(PID.TID 0000.0001)     ;
(PID.TID 0000.0001)  min range on east bd for Dirich (km) = /* user defined parameter */
(PID.TID 0000.0001)                -1.000000000000000E+00
(PID.TID 0000.0001)     ;
(PID.TID 0000.0001)  max range on east bd for Dirich (km) = /* user defined parameter */
(PID.TID 0000.0001)                -1.000000000000000E+00
(PID.TID 0000.0001)     ;
(PID.TID 0000.0001)  min range on west bd for Dirich (km) = /* user defined parameter */
(PID.TID 0000.0001)                -1.000000000000000E+00
(PID.TID 0000.0001)     ;
(PID.TID 0000.0001)  max range on west bd for Dirich (km) = /* user defined parameter */
(PID.TID 0000.0001)                -1.000000000000000E+00
(PID.TID 0000.0001)     ;
(PID.TID 0000.0001)  min range on no bd for CFBC (km) = /* user defined parameter */
(PID.TID 0000.0001)                -1.000000000000000E+00
(PID.TID 0000.0001)     ;
(PID.TID 0000.0001)  max range on no bd for CFBC (km) = /* user defined parameter */
(PID.TID 0000.0001)                -1.000000000000000E+00
(PID.TID 0000.0001)     ;
(PID.TID 0000.0001)  min range on so bd for CFBC (km) = /* user defined parameter */
(PID.TID 0000.0001)                -1.000000000000000E+00
(PID.TID 0000.0001)     ;
(PID.TID 0000.0001)  max range on so bd for CFBC (km) = /* user defined parameter */
(PID.TID 0000.0001)                -1.000000000000000E+00
(PID.TID 0000.0001)     ;
(PID.TID 0000.0001)  min range on east bd for CFBC (km) = /* user defined parameter */
(PID.TID 0000.0001)                 0.000000000000000E+00
(PID.TID 0000.0001)     ;
(PID.TID 0000.0001)  max range on east bd for CFBC (km) = /* user defined parameter */
(PID.TID 0000.0001)                 0.000000000000000E+00
(PID.TID 0000.0001)     ;
(PID.TID 0000.0001)  min range on west bd for CFBC (km) = /* user defined parameter */
(PID.TID 0000.0001)                -1.800000000000000E+02
(PID.TID 0000.0001)     ;
(PID.TID 0000.0001)  max range on west bd for CFBC (km) = /* user defined parameter */
(PID.TID 0000.0001)                 0.000000000000000E+00
(PID.TID 0000.0001)     ;
(PID.TID 0000.0001)  val (m^2/a) for north flux bdry = /* user defined parameter */
(PID.TID 0000.0001)                 0.000000000000000E+00
(PID.TID 0000.0001)     ;
(PID.TID 0000.0001)  val (m^2/a) for south flux bdry = /* user defined parameter */
(PID.TID 0000.0001)                 0.000000000000000E+00
(PID.TID 0000.0001)     ;
(PID.TID 0000.0001)  val (m^2/a) for east flux bdry = /* user defined parameter */
(PID.TID 0000.0001)                 1.500000000000000E+06
(PID.TID 0000.0001)     ;
(PID.TID 0000.0001)  val (m^2/a) for west flux bdry = /* user defined parameter */
(PID.TID 0000.0001)                 0.000000000000000E+00
(PID.TID 0000.0001)     ;
(PID.TID 0000.0001)  streamice_dump_mdsio = /* user defined parameter */
(PID.TID 0000.0001)                   T
(PID.TID 0000.0001)     ;
(PID.TID 0000.0001)  streamice_dump_mdsio = /* user defined parameter */
(PID.TID 0000.0001)                   T
(PID.TID 0000.0001)     ;
(PID.TID 0000.0001)  streamice_dump_mnc = /* user defined parameter */
(PID.TID 0000.0001)                   F
(PID.TID 0000.0001)     ;
(PID.TID 0000.0001)  streamice_tave_mnc = /* user defined parameter */
(PID.TID 0000.0001)                   F
(PID.TID 0000.0001)     ;
(PID.TID 0000.0001)  streamice_move_front = /* user defined parameter */
(PID.TID 0000.0001)                   F
(PID.TID 0000.0001)     ;
(PID.TID 0000.0001)  streamice_calve_to_mask = /* user defined parameter */
(PID.TID 0000.0001)                   F
(PID.TID 0000.0001)     ;
(PID.TID 0000.0001) STREAMICEthickInit = /* user defined parameter */
(PID.TID 0000.0001)               'FILE'
(PID.TID 0000.0001)     ;
(PID.TID 0000.0001) STREAMICEthickFile = /* user defined parameter */
(PID.TID 0000.0001)               'h0.bin'
(PID.TID 0000.0001)     ;
(PID.TID 0000.0001) STREAMICEcalveMaskFile = /* user defined parameter */
(PID.TID 0000.0001)               ''
(PID.TID 0000.0001)     ;
(PID.TID 0000.0001) GAD_CHECK: #define ALLOW_GENERIC_ADVDIFF
(PID.TID 0000.0001) // =======================================================
(PID.TID 0000.0001) // Check Model config. (CONFIG_CHECK):
(PID.TID 0000.0001) // CONFIG_CHECK : Normal End
(PID.TID 0000.0001) // =======================================================
(PID.TID 0000.0001) 
(PID.TID 0000.0001)  MDS_READ_META: opening file: pickup.0000011395.meta
(PID.TID 0000.0001)  nRecords = 543 ; filePrec =  64 ; fileIter =     11395
(PID.TID 0000.0001)     nDims =   2 , dims:
(PID.TID 0000.0001)    1:   3   1   3
(PID.TID 0000.0001)    2: 200   1 200
(PID.TID 0000.0001)     nFlds =   9 , nFl3D =   6 , fields:
(PID.TID 0000.0001)  >Uvel    < >Vvel    < >Theta   < >Salt    < >GuNm1   < >GvNm1   < >EtaN    < >dEtaHdt < >EtaH    <
(PID.TID 0000.0001) missingVal=  1.00000000000000E+00 ; nTimRec =   1 , timeList:
(PID.TID 0000.0001)   3.418500000000E+06
(PID.TID 0000.0001) READ_MFLDS_3D_RL: read field: "Uvel    ", #   1 in fldList, rec=   1
(PID.TID 0000.0001)  MDS_READ_FIELD: opening global file: pickup.0000011395.data
(PID.TID 0000.0001) READ_MFLDS_3D_RL: read field: "Vvel    ", #   2 in fldList, rec=   2
(PID.TID 0000.0001)  MDS_READ_FIELD: opening global file: pickup.0000011395.data
(PID.TID 0000.0001) READ_MFLDS_3D_RL: read field: "Theta   ", #   3 in fldList, rec=   3
(PID.TID 0000.0001)  MDS_READ_FIELD: opening global file: pickup.0000011395.data
(PID.TID 0000.0001) READ_MFLDS_3D_RL: read field: "Salt    ", #   4 in fldList, rec=   4
(PID.TID 0000.0001)  MDS_READ_FIELD: opening global file: pickup.0000011395.data
(PID.TID 0000.0001) READ_MFLDS_3D_RL: read field: "GuNm1   ", #   5 in fldList, rec=   5
(PID.TID 0000.0001)  MDS_READ_FIELD: opening global file: pickup.0000011395.data
(PID.TID 0000.0001) READ_MFLDS_3D_RL: read field: "GvNm1   ", #   6 in fldList, rec=   6
(PID.TID 0000.0001)  MDS_READ_FIELD: opening global file: pickup.0000011395.data
(PID.TID 0000.0001) READ_MFLDS_3D_RL: read field: "EtaN    ", #   7 in fldList, rec= 541
(PID.TID 0000.0001)  MDS_READ_FIELD: opening global file: pickup.0000011395.data
(PID.TID 0000.0001) READ_MFLDS_3D_RL: read field: "dEtaHdt ", #   8 in fldList, rec= 542
(PID.TID 0000.0001)  MDS_READ_FIELD: opening global file: pickup.0000011395.data
(PID.TID 0000.0001) READ_MFLDS_3D_RL: read field: "EtaH    ", #   9 in fldList, rec= 543
(PID.TID 0000.0001)  MDS_READ_FIELD: opening global file: pickup.0000011395.data
(PID.TID 0000.0001) READ_MFLDS_CHECK: - normal end ; reset MFLDS file-name: pickup.0000011395
(PID.TID 0000.0001)  write diagnostics summary to file ioUnit:      6
Iter.Nb:     11395 ; Time(s):  3.4185000000000E+06
------------------------------------------------------------------------
2D/3D diagnostics: Number of lists:     1
------------------------------------------------------------------------
listId=    1 ; file name: surfDiag
 nFlds, nActive,       freq     &     phase        , nLev               
   12  |   12  |       300.000000         0.000000 |   1
 levels:   1
 diag# | name   |   ipt  |  iMate | kLev|   count |   mate.C|           
   209 |SHIfwFlx|      1 |      0 |   1 |       0 |
   210 |SHIhtFlx|      2 |      0 |   1 |       0 |
   215 |SHIgammT|      3 |      0 |   1 |       0 |
   216 |SHIgammS|      4 |      0 |   1 |       0 |
   218 |SHI_mass|      5 |      0 |   1 |       0 |
   219 |SHIRshel|      6 |      0 |   1 |       0 |
   194 |SI_Uvel |      7 |      0 |   1 |       0 |
   195 |SI_Vvel |      8 |      0 |   1 |       0 |
   196 |SI_Thick|      9 |      0 |   1 |       0 |
   199 |SI_hmask|     10 |      0 |   1 |       0 |
   198 |SI_float|     11 |      0 |   1 |       0 |
   217 |SHIuStar|     12 |      0 |   1 |       0 |
------------------------------------------------------------------------
Global & Regional Statistics diagnostics: Number of lists:     0
------------------------------------------------------------------------
(PID.TID 0000.0001)  MDS_READ_FIELD: opening global file: bathy.box
(PID.TID 0000.0001)  MDS_READ_FIELD: opening global file: h0.bin
(PID.TID 0000.0001)  MDS_READ_FIELD: opening global file: hmask3.box
(PID.TID 0000.0001)  MDS_READ_META: opening file: pickup_streamice.0000011395.meta
(PID.TID 0000.0001)  nRecords =  99 ; filePrec =  64 ; fileIter =     11395
(PID.TID 0000.0001)     nDims =   2 , dims:
(PID.TID 0000.0001)    1:   3   1   3
(PID.TID 0000.0001)    2: 200   1 200
(PID.TID 0000.0001)     nFlds =  10 , nFl3D =   1 , fields:
(PID.TID 0000.0001)  >visc3d  < >SI_area < >SI_hmask< >SI_uvel < >SI_vvel < >SI_thick< >SI_betaF< >SI_visc < >SI_taubx< >SI_tauby<
(PID.TID 0000.0001) missingVal=  1.00000000000000E+00 ; nTimRec =   1 , timeList:
(PID.TID 0000.0001)   3.418500000000E+06
(PID.TID 0000.0001) READ_MFLDS_3D_RL: read field: "visc3d  ", #   1 in fldList, rec=   1
(PID.TID 0000.0001)  MDS_READ_FIELD: opening global file: pickup_streamice.0000011395.data
(PID.TID 0000.0001) READ_MFLDS_3D_RL: read field: "SI_area ", #   2 in fldList, rec=  91
(PID.TID 0000.0001)  MDS_READ_FIELD: opening global file: pickup_streamice.0000011395.data
(PID.TID 0000.0001) READ_MFLDS_LEV_RS: read field: "SI_hmask", #   3 in fldList, rec=  92
(PID.TID 0000.0001)  MDS_READ_FIELD: opening global file: pickup_streamice.0000011395.data
(PID.TID 0000.0001) READ_MFLDS_3D_RL: read field: "SI_uvel ", #   4 in fldList, rec=  93
(PID.TID 0000.0001)  MDS_READ_FIELD: opening global file: pickup_streamice.0000011395.data
(PID.TID 0000.0001) READ_MFLDS_3D_RL: read field: "SI_vvel ", #   5 in fldList, rec=  94
(PID.TID 0000.0001)  MDS_READ_FIELD: opening global file: pickup_streamice.0000011395.data
(PID.TID 0000.0001) READ_MFLDS_3D_RL: read field: "SI_thick", #   6 in fldList, rec=  95
(PID.TID 0000.0001)  MDS_READ_FIELD: opening global file: pickup_streamice.0000011395.data
(PID.TID 0000.0001) READ_MFLDS_3D_RL: read field: "SI_betaF", #   7 in fldList, rec=  96
(PID.TID 0000.0001)  MDS_READ_FIELD: opening global file: pickup_streamice.0000011395.data
(PID.TID 0000.0001) READ_MFLDS_3D_RL: read field: "SI_visc ", #   8 in fldList, rec=  97
(PID.TID 0000.0001)  MDS_READ_FIELD: opening global file: pickup_streamice.0000011395.data
(PID.TID 0000.0001) READ_MFLDS_3D_RL: read field: "SI_taubx", #   9 in fldList, rec=  98
(PID.TID 0000.0001)  MDS_READ_FIELD: opening global file: pickup_streamice.0000011395.data
(PID.TID 0000.0001) READ_MFLDS_3D_RL: read field: "SI_tauby", #  10 in fldList, rec=  99
(PID.TID 0000.0001)  MDS_READ_FIELD: opening global file: pickup_streamice.0000011395.data
(PID.TID 0000.0001) READ_MFLDS_CHECK: - normal end ; reset MFLDS file-name: pickup_streamice.0000011395
(PID.TID 0000.0001)  MDS_READ_META: opening file: pickup_shelfice.0000011395.meta
(PID.TID 0000.0001)  nRecords =   2 ; filePrec =  64 ; fileIter =     11395
(PID.TID 0000.0001)     nDims =   2 , dims:
(PID.TID 0000.0001)    1:   3   1   3
(PID.TID 0000.0001)    2: 200   1 200
(PID.TID 0000.0001)     nFlds =   2 , nFl3D =   0 , fields:
(PID.TID 0000.0001)  >SHI_mass< >R_Shelfi<
(PID.TID 0000.0001) missingVal=  1.00000000000000E+00 ; nTimRec =   1 , timeList:
(PID.TID 0000.0001)   3.418500000000E+06
(PID.TID 0000.0001) READ_MFLDS_3D_RL: read field: "SHI_mass", #   1 in fldList, rec=   1
(PID.TID 0000.0001)  MDS_READ_FIELD: opening global file: pickup_shelfice.0000011395.data
(PID.TID 0000.0001) READ_MFLDS_CHECK: - normal end ; reset MFLDS file-name: pickup_shelfice.0000011395
(PID.TID 0000.0001)  OBCS_FIELDS_LOAD: Reading initial data:     11395  3.418500000000E+06
(PID.TID 0000.0001)  MDS_READ_SEC_XZ: opening global file: vvel.obw
(PID.TID 0000.0001)  MDS_READ_SEC_XZ: opening global file: theta.obw
(PID.TID 0000.0001)  MDS_READ_SEC_XZ: opening global file: salt.obw
(PID.TID 0000.0001) // =======================================================
(PID.TID 0000.0001) // Model current state
(PID.TID 0000.0001) // =======================================================
(PID.TID 0000.0001) 
(PID.TID 0000.0001) // =======================================================
(PID.TID 0000.0001) // Begin MONITOR dynamic field statistics
(PID.TID 0000.0001) // =======================================================
(PID.TID 0000.0001) %MON time_tsnumber                =                 11395
(PID.TID 0000.0001) %MON time_secondsf                =   3.4185000000000E+06
(PID.TID 0000.0001) %MON dynstat_eta_max              =   2.4999963769890E+00
(PID.TID 0000.0001) %MON dynstat_eta_min              =  -7.4559274521965E+00
(PID.TID 0000.0001) %MON dynstat_eta_mean             =  -1.2866326834960E+00
(PID.TID 0000.0001) %MON dynstat_eta_sd               =   2.4094601033586E+00
(PID.TID 0000.0001) %MON dynstat_eta_del2             =   1.8293494433536E-01
(PID.TID 0000.0001) %MON dynstat_uvel_max             =   5.6679065996592E-12
(PID.TID 0000.0001) %MON dynstat_uvel_min             =  -5.7013937370441E-12
(PID.TID 0000.0001) %MON dynstat_uvel_mean            =  -8.7760202178692E-26
(PID.TID 0000.0001) %MON dynstat_uvel_sd              =   9.1995768923982E-13
(PID.TID 0000.0001) %MON dynstat_uvel_del2            =   2.2438431953217E-14
(PID.TID 0000.0001) %MON dynstat_vvel_max             =   1.9868511475419E-01
(PID.TID 0000.0001) %MON dynstat_vvel_min             =  -1.1046057309893E-01
(PID.TID 0000.0001) %MON dynstat_vvel_mean            =   5.7104612449006E-07
(PID.TID 0000.0001) %MON dynstat_vvel_sd              =   5.1882364479194E-02
(PID.TID 0000.0001) %MON dynstat_vvel_del2            =   1.5358216232328E-05
(PID.TID 0000.0001) %MON dynstat_wvel_max             =   1.2388897115162E-02
(PID.TID 0000.0001) %MON dynstat_wvel_min             =  -7.7712523810149E-03
(PID.TID 0000.0001) %MON dynstat_wvel_mean            =   3.0022119538242E-05
(PID.TID 0000.0001) %MON dynstat_wvel_sd              =   6.8027407258778E-04
(PID.TID 0000.0001) %MON dynstat_wvel_del2            =   3.9278775556707E-06
(PID.TID 0000.0001) %MON dynstat_theta_max            =   1.9439517945228E+00
(PID.TID 0000.0001) %MON dynstat_theta_min            =  -1.8515728032292E+00
(PID.TID 0000.0001) %MON dynstat_theta_mean           =   2.2418370659901E-02
(PID.TID 0000.0001) %MON dynstat_theta_sd             =   1.2764707420041E+00
(PID.TID 0000.0001) %MON dynstat_theta_del2           =   5.7672222554711E-05
(PID.TID 0000.0001) %MON dynstat_salt_max             =   3.4692814332631E+01
(PID.TID 0000.0001) %MON dynstat_salt_min             =   3.3812115784173E+01
(PID.TID 0000.0001) %MON dynstat_salt_mean            =   3.4431621788538E+01
(PID.TID 0000.0001) %MON dynstat_salt_sd              =   1.8349309263810E-01
(PID.TID 0000.0001) %MON dynstat_salt_del2            =   1.5925619814638E-05
(PID.TID 0000.0001) %MON advcfl_uvel_max              =   4.5092449197060E-13
(PID.TID 0000.0001) %MON advcfl_vvel_max              =   6.8624588925515E-02
(PID.TID 0000.0001) %MON advcfl_wvel_max              =   3.7166691345486E-01
(PID.TID 0000.0001) %MON advcfl_W_hf_max              =   3.7166691345486E-01
(PID.TID 0000.0001) %MON pe_b_mean                    =   5.2673466335883E-02
(PID.TID 0000.0001) %MON ke_max                       =   1.9723738987803E-02
(PID.TID 0000.0001) %MON ke_mean                      =   1.3458557656010E-03
(PID.TID 0000.0001) %MON ke_vol                       =   1.3174232507485E+12
(PID.TID 0000.0001) // =======================================================
(PID.TID 0000.0001) // End MONITOR dynamic field statistics
(PID.TID 0000.0001) // =======================================================
(PID.TID 0000.0001) // =======================================================
(PID.TID 0000.0001) // Begin OBCS MONITOR field statistics
(PID.TID 0000.0001) // =======================================================
(PID.TID 0000.0001) %MON obc_N_vVel_max               =   2.5000000000000E-02
(PID.TID 0000.0001) %MON obc_N_vVel_min               =  -2.5000000000000E-02
(PID.TID 0000.0001) %MON obc_N_vVel_mean              =   1.0701309254946E-18
(PID.TID 0000.0001) %MON obc_N_vVel_sd                =   1.4595032760272E-02
(PID.TID 0000.0001) %MON obc_N_vVel_Int               =   1.1141310096718E-11
(PID.TID 0000.0001) // =======================================================
(PID.TID 0000.0001) // End OBCS MONITOR field statistics
(PID.TID 0000.0001) // =======================================================
(PID.TID 0000.0001) streamice solo_time_step: nIter0000011395 0.11E+00seconds
 time_step_loc    9.5129375951293768E-006
(PID.TID 0000.0001) END STREAMICE_ADVECT_THICKNESS
(PID.TID 0000.0001) SOLVE_FOR_PRESSURE: putPmEinXvector =    F
 cg2d: Sum(rhs),rhsMax =   1.18807276260923E-01  5.71294881521863E+01
(PID.TID 0000.0001)      cg2d_init_res =   6.75392412586924E-05
(PID.TID 0000.0001)      cg2d_iters(min,last) =      -1     115
(PID.TID 0000.0001)      cg2d_last_res =   5.46199934579013E-12
(PID.TID 0000.0001) CALLING FILL DIAGNOSTICS
(PID.TID 0000.0001) // =======================================================
(PID.TID 0000.0001) // Begin MONITOR dynamic field statistics
(PID.TID 0000.0001) // =======================================================
(PID.TID 0000.0001) %MON time_tsnumber                =                 11396
(PID.TID 0000.0001) %MON time_secondsf                =   3.4188000000000E+06
(PID.TID 0000.0001) %MON dynstat_eta_max              =   2.5001781837297E+00
(PID.TID 0000.0001) %MON dynstat_eta_min              =  -7.4557827239887E+00
(PID.TID 0000.0001) %MON dynstat_eta_mean             =  -1.2865489534438E+00
(PID.TID 0000.0001) %MON dynstat_eta_sd               =   2.4094106765501E+00
(PID.TID 0000.0001) %MON dynstat_eta_del2             =   1.8293495093228E-01
(PID.TID 0000.0001) %MON dynstat_uvel_max             =   7.1513354177572E-12
(PID.TID 0000.0001) %MON dynstat_uvel_min             =  -7.1747879693714E-12
(PID.TID 0000.0001) %MON dynstat_uvel_mean            =  -8.8017954759029E-26
(PID.TID 0000.0001) %MON dynstat_uvel_sd              =   9.4215287848673E-13
(PID.TID 0000.0001) %MON dynstat_uvel_del2            =   2.2979197676644E-14
(PID.TID 0000.0001) %MON dynstat_vvel_max             =   1.9868745615060E-01
(PID.TID 0000.0001) %MON dynstat_vvel_min             =  -1.1045810548027E-01
(PID.TID 0000.0001) %MON dynstat_vvel_mean            =   5.8383946627119E-07
(PID.TID 0000.0001) %MON dynstat_vvel_sd              =   5.1884482337527E-02
(PID.TID 0000.0001) %MON dynstat_vvel_del2            =   1.5358400350258E-05
(PID.TID 0000.0001) %MON dynstat_wvel_max             =   1.2388626513311E-02
(PID.TID 0000.0001) %MON dynstat_wvel_min             =  -7.7724936384227E-03
(PID.TID 0000.0001) %MON dynstat_wvel_mean            =   3.0022260570603E-05
(PID.TID 0000.0001) %MON dynstat_wvel_sd              =   6.8029575041069E-04
(PID.TID 0000.0001) %MON dynstat_wvel_del2            =   3.9281259541193E-06
(PID.TID 0000.0001) %MON dynstat_theta_max            =   1.9439525160588E+00
(PID.TID 0000.0001) %MON dynstat_theta_min            =  -1.8515653453867E+00
(PID.TID 0000.0001) %MON dynstat_theta_mean           =   2.2429970611840E-02
(PID.TID 0000.0001) %MON dynstat_theta_sd             =   1.2764677034767E+00
(PID.TID 0000.0001) %MON dynstat_theta_del2           =   5.7675325235204E-05
(PID.TID 0000.0001) %MON dynstat_salt_max             =   3.4692814425136E+01
(PID.TID 0000.0001) %MON dynstat_salt_min             =   3.3812108703200E+01
(PID.TID 0000.0001) %MON dynstat_salt_mean            =   3.4431622493850E+01
(PID.TID 0000.0001) %MON dynstat_salt_sd              =   1.8349375898062E-01
(PID.TID 0000.0001) %MON dynstat_salt_del2            =   1.5925732129201E-05
(PID.TID 0000.0001) %MON advcfl_uvel_max              =   5.6718298444466E-13
(PID.TID 0000.0001) %MON advcfl_vvel_max              =   6.8625397629107E-02
(PID.TID 0000.0001) %MON advcfl_wvel_max              =   3.7165879539932E-01
(PID.TID 0000.0001) %MON advcfl_W_hf_max              =   3.7165879539932E-01
(PID.TID 0000.0001) %MON pe_b_mean                    =  -2.7187424784382E-01
(PID.TID 0000.0001) %MON ke_max                       =   1.9724272029224E-02
(PID.TID 0000.0001) %MON ke_mean                      =   1.3459656744278E-03
(PID.TID 0000.0001) %MON ke_vol                       =   1.3174234085524E+12
(PID.TID 0000.0001) // =======================================================
(PID.TID 0000.0001) // End MONITOR dynamic field statistics
(PID.TID 0000.0001) // =======================================================
(PID.TID 0000.0001) // =======================================================
(PID.TID 0000.0001) // Begin OBCS MONITOR field statistics
(PID.TID 0000.0001) // =======================================================
(PID.TID 0000.0001) %MON obc_N_vVel_max               =   2.5000000000000E-02
(PID.TID 0000.0001) %MON obc_N_vVel_min               =  -2.5000000000000E-02
(PID.TID 0000.0001) %MON obc_N_vVel_mean              =   1.0701309254946E-18
(PID.TID 0000.0001) %MON obc_N_vVel_sd                =   1.4595032760272E-02
(PID.TID 0000.0001) %MON obc_N_vVel_Int               =   1.1141310096718E-11
(PID.TID 0000.0001) // =======================================================
(PID.TID 0000.0001) // End OBCS MONITOR field statistics
(PID.TID 0000.0001) // =======================================================
 Computing Diagnostic #    209  SHIfwFlx     Counter:       1   Parms: SM      L1      
 Computing Diagnostic #    210  SHIhtFlx     Counter:       1   Parms: SM      L1      
 Computing Diagnostic #    215  SHIgammT     Counter:       1   Parms: SM      L1      
 Computing Diagnostic #    216  SHIgammS     Counter:       1   Parms: SM      L1      
 Computing Diagnostic #    218  SHI_mass     Counter:       1   Parms: SM      L1      
 Computing Diagnostic #    219  SHIRshel     Counter:       1   Parms: SM      L1      
 Computing Diagnostic #    194  SI_Uvel      Counter:       1   Parms: UZ      L1      
 Computing Diagnostic #    195  SI_Vvel      Counter:       1   Parms: VZ      L1      
 Computing Diagnostic #    196  SI_Thick     Counter:       1   Parms: SM      L1      
 Computing Diagnostic #    199  SI_hmask     Counter:       1   Parms: SM      L1      
 Computing Diagnostic #    198  SI_float     Counter:       1   Parms: SM      L1      
 Computing Diagnostic #    217  SHIuStar     Counter:       1   Parms: SM      L1      
(PID.TID 0000.0001) streamice solo_time_step: nIter0000011396 0.11E+00seconds
 time_step_loc    9.5129375951293768E-006
(PID.TID 0000.0001) END STREAMICE_ADVECT_THICKNESS
 cg2d: Sum(rhs),rhsMax =   1.18799807406408E-01  5.71293617941619E+01
(PID.TID 0000.0001)      cg2d_init_res =   6.78682936703727E-05
(PID.TID 0000.0001)      cg2d_iters(min,last) =      -1     115
(PID.TID 0000.0001)      cg2d_last_res =   5.46288546899075E-12
(PID.TID 0000.0001) CALLING FILL DIAGNOSTICS
(PID.TID 0000.0001) // =======================================================
(PID.TID 0000.0001) // Begin MONITOR dynamic field statistics
(PID.TID 0000.0001) // =======================================================
(PID.TID 0000.0001) %MON time_tsnumber                =                 11397
(PID.TID 0000.0001) %MON time_secondsf                =   3.4191000000000E+06
(PID.TID 0000.0001) %MON dynstat_eta_max              =   2.5003587817682E+00
(PID.TID 0000.0001) %MON dynstat_eta_min              =  -7.4556377219805E+00
(PID.TID 0000.0001) %MON dynstat_eta_mean             =  -1.2864652287758E+00
(PID.TID 0000.0001) %MON dynstat_eta_sd               =   2.4093609385227E+00
(PID.TID 0000.0001) %MON dynstat_eta_del2             =   1.8293493000521E-01
(PID.TID 0000.0001) %MON dynstat_uvel_max             =   6.2792794259427E-12
(PID.TID 0000.0001) %MON dynstat_uvel_min             =  -6.2915768242204E-12
(PID.TID 0000.0001) %MON dynstat_uvel_mean            =  -8.9643500789049E-26
(PID.TID 0000.0001) %MON dynstat_uvel_sd              =   9.2930056107756E-13
(PID.TID 0000.0001) %MON dynstat_uvel_del2            =   2.2666398646199E-14
(PID.TID 0000.0001) %MON dynstat_vvel_max             =   1.9868987972862E-01
(PID.TID 0000.0001) %MON dynstat_vvel_min             =  -1.1045569078569E-01
(PID.TID 0000.0001) %MON dynstat_vvel_mean            =   5.9515628115462E-07
(PID.TID 0000.0001) %MON dynstat_vvel_sd              =   5.1886594995474E-02
(PID.TID 0000.0001) %MON dynstat_vvel_del2            =   1.5358585353867E-05
(PID.TID 0000.0001) %MON dynstat_wvel_max             =   1.2388330698988E-02
(PID.TID 0000.0001) %MON dynstat_wvel_min             =  -7.7737358077315E-03
(PID.TID 0000.0001) %MON dynstat_wvel_mean            =   3.0022252899766E-05
(PID.TID 0000.0001) %MON dynstat_wvel_sd              =   6.8031639640536E-04
(PID.TID 0000.0001) %MON dynstat_wvel_del2            =   3.9283621547970E-06
(PID.TID 0000.0001) %MON dynstat_theta_max            =   1.9439532376773E+00
(PID.TID 0000.0001) %MON dynstat_theta_min            =  -1.8515578764714E+00
(PID.TID 0000.0001) %MON dynstat_theta_mean           =   2.2441562764856E-02
(PID.TID 0000.0001) %MON dynstat_theta_sd             =   1.2764646668789E+00
(PID.TID 0000.0001) %MON dynstat_theta_del2           =   5.7678429178792E-05
(PID.TID 0000.0001) %MON dynstat_salt_max             =   3.4692814517651E+01
(PID.TID 0000.0001) %MON dynstat_salt_min             =   3.3812101706040E+01
(PID.TID 0000.0001) %MON dynstat_salt_mean            =   3.4431623198638E+01
(PID.TID 0000.0001) %MON dynstat_salt_sd              =   1.8349442477277E-01
(PID.TID 0000.0001) %MON dynstat_salt_del2            =   1.5925845606817E-05
(PID.TID 0000.0001) %MON advcfl_uvel_max              =   4.9760220290038E-13
(PID.TID 0000.0001) %MON advcfl_vvel_max              =   6.8626234717710E-02
(PID.TID 0000.0001) %MON advcfl_wvel_max              =   3.7164992096963E-01
(PID.TID 0000.0001) %MON advcfl_W_hf_max              =   3.7164992096963E-01
(PID.TID 0000.0001) %MON pe_b_mean                    =  -2.7185718355693E-01
(PID.TID 0000.0001) %MON ke_max                       =   1.9724820806098E-02
(PID.TID 0000.0001) %MON ke_mean                      =   1.3460753178383E-03
(PID.TID 0000.0001) %MON ke_vol                       =   1.3174235673219E+12
(PID.TID 0000.0001) // =======================================================
(PID.TID 0000.0001) // End MONITOR dynamic field statistics
(PID.TID 0000.0001) // =======================================================
(PID.TID 0000.0001) // =======================================================
(PID.TID 0000.0001) // Begin OBCS MONITOR field statistics
(PID.TID 0000.0001) // =======================================================
(PID.TID 0000.0001) %MON obc_N_vVel_max               =   2.5000000000000E-02
(PID.TID 0000.0001) %MON obc_N_vVel_min               =  -2.5000000000000E-02
(PID.TID 0000.0001) %MON obc_N_vVel_mean              =   1.0701309254946E-18
(PID.TID 0000.0001) %MON obc_N_vVel_sd                =   1.4595032760272E-02
(PID.TID 0000.0001) %MON obc_N_vVel_Int               =   1.1141310096718E-11
(PID.TID 0000.0001) // =======================================================
(PID.TID 0000.0001) // End OBCS MONITOR field statistics
(PID.TID 0000.0001) // =======================================================
 Computing Diagnostic #    209  SHIfwFlx     Counter:       1   Parms: SM      L1      
 Computing Diagnostic #    210  SHIhtFlx     Counter:       1   Parms: SM      L1      
 Computing Diagnostic #    215  SHIgammT     Counter:       1   Parms: SM      L1      
 Computing Diagnostic #    216  SHIgammS     Counter:       1   Parms: SM      L1      
 Computing Diagnostic #    218  SHI_mass     Counter:       1   Parms: SM      L1      
 Computing Diagnostic #    219  SHIRshel     Counter:       1   Parms: SM      L1      
 Computing Diagnostic #    194  SI_Uvel      Counter:       1   Parms: UZ      L1      
 Computing Diagnostic #    195  SI_Vvel      Counter:       1   Parms: VZ      L1      
 Computing Diagnostic #    196  SI_Thick     Counter:       1   Parms: SM      L1      
 Computing Diagnostic #    199  SI_hmask     Counter:       1   Parms: SM      L1      
 Computing Diagnostic #    198  SI_float     Counter:       1   Parms: SM      L1      
 Computing Diagnostic #    217  SHIuStar     Counter:       1   Parms: SM      L1      
(PID.TID 0000.0001) streamice solo_time_step: nIter0000011397 0.11E+00seconds
 time_step_loc    9.5129375951293768E-006
(PID.TID 0000.0001) END STREAMICE_ADVECT_THICKNESS
 cg2d: Sum(rhs),rhsMax =   1.18792338242571E-01  5.71292358056374E+01
(PID.TID 0000.0001)      cg2d_init_res =   6.78576695426766E-05
(PID.TID 0000.0001)      cg2d_iters(min,last) =      -1     115
(PID.TID 0000.0001)      cg2d_last_res =   5.46505873835744E-12
(PID.TID 0000.0001) CALLING FILL DIAGNOSTICS
(PID.TID 0000.0001) // =======================================================
(PID.TID 0000.0001) // Begin MONITOR dynamic field statistics
(PID.TID 0000.0001) // =======================================================
(PID.TID 0000.0001) %MON time_tsnumber                =                 11398
(PID.TID 0000.0001) %MON time_secondsf                =   3.4194000000000E+06
(PID.TID 0000.0001) %MON dynstat_eta_max              =   2.5005395338716E+00
(PID.TID 0000.0001) %MON dynstat_eta_min              =  -7.4554929537072E+00
(PID.TID 0000.0001) %MON dynstat_eta_mean             =  -1.2863815094359E+00
(PID.TID 0000.0001) %MON dynstat_eta_sd               =   2.4093111935650E+00
(PID.TID 0000.0001) %MON dynstat_eta_del2             =   1.8293491001435E-01
(PID.TID 0000.0001) %MON dynstat_uvel_max             =   6.9130569491781E-12
(PID.TID 0000.0001) %MON dynstat_uvel_min             =  -6.9267340820035E-12
(PID.TID 0000.0001) %MON dynstat_uvel_mean            =  -8.8613328988883E-26
(PID.TID 0000.0001) %MON dynstat_uvel_sd              =   9.3926475395160E-13
(PID.TID 0000.0001) %MON dynstat_uvel_del2            =   2.2908901790143E-14
(PID.TID 0000.0001) %MON dynstat_vvel_max             =   1.9869239386643E-01
(PID.TID 0000.0001) %MON dynstat_vvel_min             =  -1.1045327787887E-01
(PID.TID 0000.0001) %MON dynstat_vvel_mean            =   6.0053500796641E-07
(PID.TID 0000.0001) %MON dynstat_vvel_sd              =   5.1888702482634E-02
(PID.TID 0000.0001) %MON dynstat_vvel_del2            =   1.5358773222219E-05
(PID.TID 0000.0001) %MON dynstat_wvel_max             =   1.2388040479803E-02
(PID.TID 0000.0001) %MON dynstat_wvel_min             =  -7.7749791231890E-03
(PID.TID 0000.0001) %MON dynstat_wvel_mean            =   3.0022241253140E-05
(PID.TID 0000.0001) %MON dynstat_wvel_sd              =   6.8033728325815E-04
(PID.TID 0000.0001) %MON dynstat_wvel_del2            =   3.9286023870599E-06
(PID.TID 0000.0001) %MON dynstat_theta_max            =   1.9439539593676E+00
(PID.TID 0000.0001) %MON dynstat_theta_min            =  -1.8515503963836E+00
(PID.TID 0000.0001) %MON dynstat_theta_mean           =   2.2453148003593E-02
(PID.TID 0000.0001) %MON dynstat_theta_sd             =   1.2764616322065E+00
(PID.TID 0000.0001) %MON dynstat_theta_del2           =   5.7681541745665E-05
(PID.TID 0000.0001) %MON dynstat_salt_max             =   3.4692814610175E+01
(PID.TID 0000.0001) %MON dynstat_salt_min             =   3.3812094788390E+01
(PID.TID 0000.0001) %MON dynstat_salt_mean            =   3.4431623903180E+01
(PID.TID 0000.0001) %MON dynstat_salt_sd              =   1.8349508973597E-01
(PID.TID 0000.0001) %MON dynstat_salt_del2            =   1.5925962496350E-05
(PID.TID 0000.0001) %MON advcfl_uvel_max              =   5.4805797729437E-13
(PID.TID 0000.0001) %MON advcfl_vvel_max              =   6.8627103085097E-02
(PID.TID 0000.0001) %MON advcfl_wvel_max              =   3.7164121439409E-01
(PID.TID 0000.0001) %MON advcfl_W_hf_max              =   3.7164121439409E-01
(PID.TID 0000.0001) %MON pe_b_mean                    =  -2.7184011974070E-01
(PID.TID 0000.0001) %MON ke_max                       =   1.9725385921631E-02
(PID.TID 0000.0001) %MON ke_mean                      =   1.3461846973443E-03
(PID.TID 0000.0001) %MON ke_vol                       =   1.3174237260812E+12
(PID.TID 0000.0001) // =======================================================
(PID.TID 0000.0001) // End MONITOR dynamic field statistics
(PID.TID 0000.0001) // =======================================================
(PID.TID 0000.0001) // =======================================================
(PID.TID 0000.0001) // Begin OBCS MONITOR field statistics
(PID.TID 0000.0001) // =======================================================
(PID.TID 0000.0001) %MON obc_N_vVel_max               =   2.5000000000000E-02
(PID.TID 0000.0001) %MON obc_N_vVel_min               =  -2.5000000000000E-02
(PID.TID 0000.0001) %MON obc_N_vVel_mean              =   1.0701309254946E-18
(PID.TID 0000.0001) %MON obc_N_vVel_sd                =   1.4595032760272E-02
(PID.TID 0000.0001) %MON obc_N_vVel_Int               =   1.1141310096718E-11
(PID.TID 0000.0001) // =======================================================
(PID.TID 0000.0001) // End OBCS MONITOR field statistics
(PID.TID 0000.0001) // =======================================================
 Computing Diagnostic #    209  SHIfwFlx     Counter:       1   Parms: SM      L1      
 Computing Diagnostic #    210  SHIhtFlx     Counter:       1   Parms: SM      L1      
 Computing Diagnostic #    215  SHIgammT     Counter:       1   Parms: SM      L1      
 Computing Diagnostic #    216  SHIgammS     Counter:       1   Parms: SM      L1      
 Computing Diagnostic #    218  SHI_mass     Counter:       1   Parms: SM      L1      
 Computing Diagnostic #    219  SHIRshel     Counter:       1   Parms: SM      L1      
 Computing Diagnostic #    194  SI_Uvel      Counter:       1   Parms: UZ      L1      
 Computing Diagnostic #    195  SI_Vvel      Counter:       1   Parms: VZ      L1      
 Computing Diagnostic #    196  SI_Thick     Counter:       1   Parms: SM      L1      
 Computing Diagnostic #    199  SI_hmask     Counter:       1   Parms: SM      L1      
 Computing Diagnostic #    198  SI_float     Counter:       1   Parms: SM      L1      
 Computing Diagnostic #    217  SHIuStar     Counter:       1   Parms: SM      L1      
(PID.TID 0000.0001) streamice solo_time_step: nIter0000011398 0.11E+00seconds
 time_step_loc    9.5129375951293768E-006
(PID.TID 0000.0001) END STREAMICE_ADVECT_THICKNESS
 cg2d: Sum(rhs),rhsMax =   1.18784869429308E-01  5.71291098680163E+01
(PID.TID 0000.0001)      cg2d_init_res =   6.78570211455333E-05
(PID.TID 0000.0001)      cg2d_iters(min,last) =      -1     115
(PID.TID 0000.0001)      cg2d_last_res =   5.46524609003199E-12
(PID.TID 0000.0001) CALLING FILL DIAGNOSTICS
(PID.TID 0000.0001) // =======================================================
(PID.TID 0000.0001) // Begin MONITOR dynamic field statistics
(PID.TID 0000.0001) // =======================================================
(PID.TID 0000.0001) %MON time_tsnumber                =                 11399
(PID.TID 0000.0001) %MON time_secondsf                =   3.4197000000000E+06
(PID.TID 0000.0001) %MON dynstat_eta_max              =   2.5007204558931E+00
(PID.TID 0000.0001) %MON dynstat_eta_min              =  -7.4553483656347E+00
(PID.TID 0000.0001) %MON dynstat_eta_mean             =  -1.2862977953953E+00
(PID.TID 0000.0001) %MON dynstat_eta_sd               =   2.4092614380951E+00
(PID.TID 0000.0001) %MON dynstat_eta_del2             =   1.8293489014812E-01
(PID.TID 0000.0001) %MON dynstat_uvel_max             =   6.5032477734803E-12
(PID.TID 0000.0001) %MON dynstat_uvel_min             =  -6.5191597775960E-12
(PID.TID 0000.0001) %MON dynstat_uvel_mean            =  -8.9510695964457E-26
(PID.TID 0000.0001) %MON dynstat_uvel_sd              =   9.3320369503028E-13
(PID.TID 0000.0001) %MON dynstat_uvel_del2            =   2.2761735237959E-14
(PID.TID 0000.0001) %MON dynstat_vvel_max             =   1.9869501722072E-01
(PID.TID 0000.0001) %MON dynstat_vvel_min             =  -1.1045086099982E-01
(PID.TID 0000.0001) %MON dynstat_vvel_mean            =   5.9910223667986E-07
(PID.TID 0000.0001) %MON dynstat_vvel_sd              =   5.1890804772660E-02
(PID.TID 0000.0001) %MON dynstat_vvel_del2            =   1.5358965711772E-05
(PID.TID 0000.0001) %MON dynstat_wvel_max             =   1.2387752967608E-02
(PID.TID 0000.0001) %MON dynstat_wvel_min             =  -7.7762237276484E-03
(PID.TID 0000.0001) %MON dynstat_wvel_mean            =   3.0022224422183E-05
(PID.TID 0000.0001) %MON dynstat_wvel_sd              =   6.8035828654879E-04
(PID.TID 0000.0001) %MON dynstat_wvel_del2            =   3.9288446667989E-06
(PID.TID 0000.0001) %MON dynstat_theta_max            =   1.9439546811184E+00
(PID.TID 0000.0001) %MON dynstat_theta_min            =  -1.8515429050015E+00
(PID.TID 0000.0001) %MON dynstat_theta_mean           =   2.2464726300210E-02
(PID.TID 0000.0001) %MON dynstat_theta_sd             =   1.2764585994724E+00
(PID.TID 0000.0001) %MON dynstat_theta_del2           =   5.7684665441528E-05
(PID.TID 0000.0001) %MON dynstat_salt_max             =   3.4692814702708E+01
(PID.TID 0000.0001) %MON dynstat_salt_min             =   3.3812087951368E+01
(PID.TID 0000.0001) %MON dynstat_salt_mean            =   3.4431624607466E+01
(PID.TID 0000.0001) %MON dynstat_salt_sd              =   1.8349575387915E-01
(PID.TID 0000.0001) %MON dynstat_salt_del2            =   1.5926083542006E-05
(PID.TID 0000.0001) %MON advcfl_uvel_max              =   5.1560178903057E-13
(PID.TID 0000.0001) %MON advcfl_vvel_max              =   6.8628009175167E-02
(PID.TID 0000.0001) %MON advcfl_wvel_max              =   3.7163258902824E-01
(PID.TID 0000.0001) %MON advcfl_W_hf_max              =   3.7163258902824E-01
(PID.TID 0000.0001) %MON pe_b_mean                    =  -2.7182305593239E-01
(PID.TID 0000.0001) %MON ke_max                       =   1.9725971109798E-02
(PID.TID 0000.0001) %MON ke_mean                      =   1.3462938115387E-03
(PID.TID 0000.0001) %MON ke_vol                       =   1.3174238848304E+12
(PID.TID 0000.0001) // =======================================================
(PID.TID 0000.0001) // End MONITOR dynamic field statistics
(PID.TID 0000.0001) // =======================================================
(PID.TID 0000.0001) // =======================================================
(PID.TID 0000.0001) // Begin OBCS MONITOR field statistics
(PID.TID 0000.0001) // =======================================================
(PID.TID 0000.0001) %MON obc_N_vVel_max               =   2.5000000000000E-02
(PID.TID 0000.0001) %MON obc_N_vVel_min               =  -2.5000000000000E-02
(PID.TID 0000.0001) %MON obc_N_vVel_mean              =   1.0701309254946E-18
(PID.TID 0000.0001) %MON obc_N_vVel_sd                =   1.4595032760272E-02
(PID.TID 0000.0001) %MON obc_N_vVel_Int               =   1.1141310096718E-11
(PID.TID 0000.0001) // =======================================================
(PID.TID 0000.0001) // End OBCS MONITOR field statistics
(PID.TID 0000.0001) // =======================================================
 Computing Diagnostic #    209  SHIfwFlx     Counter:       1   Parms: SM      L1      
 Computing Diagnostic #    210  SHIhtFlx     Counter:       1   Parms: SM      L1      
 Computing Diagnostic #    215  SHIgammT     Counter:       1   Parms: SM      L1      
 Computing Diagnostic #    216  SHIgammS     Counter:       1   Parms: SM      L1      
 Computing Diagnostic #    218  SHI_mass     Counter:       1   Parms: SM      L1      
 Computing Diagnostic #    219  SHIRshel     Counter:       1   Parms: SM      L1      
 Computing Diagnostic #    194  SI_Uvel      Counter:       1   Parms: UZ      L1      
 Computing Diagnostic #    195  SI_Vvel      Counter:       1   Parms: VZ      L1      
 Computing Diagnostic #    196  SI_Thick     Counter:       1   Parms: SM      L1      
 Computing Diagnostic #    199  SI_hmask     Counter:       1   Parms: SM      L1      
 Computing Diagnostic #    198  SI_float     Counter:       1   Parms: SM      L1      
 Computing Diagnostic #    217  SHIuStar     Counter:       1   Parms: SM      L1      
(PID.TID 0000.0001) streamice solo_time_step: nIter0000011399 0.11E+00seconds
 time_step_loc    9.5129375951293768E-006
(PID.TID 0000.0001) END STREAMICE_ADVECT_THICKNESS
 cg2d: Sum(rhs),rhsMax =   1.18777400967778E-01  5.71289839804992E+01
(PID.TID 0000.0001)      cg2d_init_res =   6.78561674602470E-05
(PID.TID 0000.0001)      cg2d_iters(min,last) =      -1     115
(PID.TID 0000.0001)      cg2d_last_res =   5.46532221187733E-12
(PID.TID 0000.0001) CALLING FILL DIAGNOSTICS
(PID.TID 0000.0001) // =======================================================
(PID.TID 0000.0001) // Begin MONITOR dynamic field statistics
(PID.TID 0000.0001) // =======================================================
(PID.TID 0000.0001) %MON time_tsnumber                =                 11400
(PID.TID 0000.0001) %MON time_secondsf                =   3.4200000000000E+06
(PID.TID 0000.0001) %MON dynstat_eta_max              =   2.5009014569708E+00
(PID.TID 0000.0001) %MON dynstat_eta_min              =  -7.4552038485320E+00
(PID.TID 0000.0001) %MON dynstat_eta_mean             =  -1.2862140866481E+00
(PID.TID 0000.0001) %MON dynstat_eta_sd               =   2.4092116738048E+00
(PID.TID 0000.0001) %MON dynstat_eta_del2             =   1.8293487040972E-01
(PID.TID 0000.0001) %MON dynstat_uvel_max             =   6.7997174405682E-12
(PID.TID 0000.0001) %MON dynstat_uvel_min             =  -6.8127939274993E-12
(PID.TID 0000.0001) %MON dynstat_uvel_mean            =  -9.0232372497583E-26
(PID.TID 0000.0001) %MON dynstat_uvel_sd              =   9.3749293564709E-13
(PID.TID 0000.0001) %MON dynstat_uvel_del2            =   2.2865962635393E-14
(PID.TID 0000.0001) %MON dynstat_vvel_max             =   1.9869775354136E-01
(PID.TID 0000.0001) %MON dynstat_vvel_min             =  -1.1044843844685E-01
(PID.TID 0000.0001) %MON dynstat_vvel_mean            =   5.9288923307025E-07
(PID.TID 0000.0001) %MON dynstat_vvel_sd              =   5.1892901862941E-02
(PID.TID 0000.0001) %MON dynstat_vvel_del2            =   1.5359161183047E-05
(PID.TID 0000.0001) %MON dynstat_wvel_max             =   1.2387469535815E-02
(PID.TID 0000.0001) %MON dynstat_wvel_min             =  -7.7774695284440E-03
(PID.TID 0000.0001) %MON dynstat_wvel_mean            =   3.0022202362362E-05
(PID.TID 0000.0001) %MON dynstat_wvel_sd              =   6.8037944244800E-04
(PID.TID 0000.0001) %MON dynstat_wvel_del2            =   3.9290899616646E-06
(PID.TID 0000.0001) %MON dynstat_theta_max            =   1.9439554029174E+00
(PID.TID 0000.0001) %MON dynstat_theta_min            =  -1.8515354022138E+00
(PID.TID 0000.0001) %MON dynstat_theta_mean           =   2.2476297638350E-02
(PID.TID 0000.0001) %MON dynstat_theta_sd             =   1.2764555686921E+00
(PID.TID 0000.0001) %MON dynstat_theta_del2           =   5.7687803448530E-05
(PID.TID 0000.0001) %MON dynstat_salt_max             =   3.4692814795246E+01
(PID.TID 0000.0001) %MON dynstat_salt_min             =   3.3812081195867E+01
(PID.TID 0000.0001) %MON dynstat_salt_mean            =   3.4431625311491E+01
(PID.TID 0000.0001) %MON dynstat_salt_sd              =   1.8349641721303E-01
(PID.TID 0000.0001) %MON dynstat_salt_del2            =   1.5926209206609E-05
(PID.TID 0000.0001) %MON advcfl_uvel_max              =   5.3856654840548E-13
(PID.TID 0000.0001) %MON advcfl_vvel_max              =   6.8628954283105E-02
(PID.TID 0000.0001) %MON advcfl_wvel_max              =   3.7162408607446E-01
(PID.TID 0000.0001) %MON advcfl_W_hf_max              =   3.7162408607446E-01
(PID.TID 0000.0001) %MON pe_b_mean                    =  -2.7180599166810E-01
(PID.TID 0000.0001) %MON ke_max                       =   1.9726577261799E-02
(PID.TID 0000.0001) %MON ke_mean                      =   1.3464026602543E-03
(PID.TID 0000.0001) %MON ke_vol                       =   1.3174240435695E+12
(PID.TID 0000.0001) // =======================================================
(PID.TID 0000.0001) // End MONITOR dynamic field statistics
(PID.TID 0000.0001) // =======================================================
(PID.TID 0000.0001) // =======================================================
(PID.TID 0000.0001) // Begin OBCS MONITOR field statistics
(PID.TID 0000.0001) // =======================================================
(PID.TID 0000.0001) %MON obc_N_vVel_max               =   2.5000000000000E-02
(PID.TID 0000.0001) %MON obc_N_vVel_min               =  -2.5000000000000E-02
(PID.TID 0000.0001) %MON obc_N_vVel_mean              =   1.0701309254946E-18
(PID.TID 0000.0001) %MON obc_N_vVel_sd                =   1.4595032760272E-02
(PID.TID 0000.0001) %MON obc_N_vVel_Int               =   1.1141310096718E-11
(PID.TID 0000.0001) // =======================================================
(PID.TID 0000.0001) // End OBCS MONITOR field statistics
(PID.TID 0000.0001) // =======================================================
 Computing Diagnostic #    209  SHIfwFlx     Counter:       1   Parms: SM      L1      
 Computing Diagnostic #    210  SHIhtFlx     Counter:       1   Parms: SM      L1      
 Computing Diagnostic #    215  SHIgammT     Counter:       1   Parms: SM      L1      
 Computing Diagnostic #    216  SHIgammS     Counter:       1   Parms: SM      L1      
 Computing Diagnostic #    218  SHI_mass     Counter:       1   Parms: SM      L1      
 Computing Diagnostic #    219  SHIRshel     Counter:       1   Parms: SM      L1      
 Computing Diagnostic #    194  SI_Uvel      Counter:       1   Parms: UZ      L1      
 Computing Diagnostic #    195  SI_Vvel      Counter:       1   Parms: VZ      L1      
 Computing Diagnostic #    196  SI_Thick     Counter:       1   Parms: SM      L1      
 Computing Diagnostic #    199  SI_hmask     Counter:       1   Parms: SM      L1      
 Computing Diagnostic #    198  SI_float     Counter:       1   Parms: SM      L1      
 Computing Diagnostic #    217  SHIuStar     Counter:       1   Parms: SM      L1      
(PID.TID 0000.0001) SHI_REMESH at it=     11400
(PID.TID 0000.0001) --> REMESH in:    1   68   1   1 , x,y=  -1.054E+02  -7.492E+01
(PID.TID 0000.0001)  before:  ks=  40 Ro_s=  -3.900E+02 eta=   2.501E+00 hFac=   1.250E+00
(PID.TID 0000.0001)  after :  ks=  39 Ro_s=  -3.800E+02 eta=  -7.499E+00 hFac=   2.501E-01
(PID.TID 0000.0001) --> REMESH in:    2   68   1   1 , x,y=  -1.053E+02  -7.492E+01
(PID.TID 0000.0001)  before:  ks=  40 Ro_s=  -3.900E+02 eta=   2.501E+00 hFac=   1.250E+00
(PID.TID 0000.0001)  after :  ks=  39 Ro_s=  -3.800E+02 eta=  -7.499E+00 hFac=   2.501E-01
(PID.TID 0000.0001) --> REMESH in:    3   68   1   1 , x,y=  -1.052E+02  -7.492E+01
(PID.TID 0000.0001)  before:  ks=  40 Ro_s=  -3.900E+02 eta=   2.501E+00 hFac=   1.250E+00
(PID.TID 0000.0001)  after :  ks=  39 Ro_s=  -3.800E+02 eta=  -7.499E+00 hFac=   2.501E-01
(PID.TID 0000.0001) SHI_REMESH : end of report
(PID.TID 0000.0001) streamice solo_time_step: nIter0000011400 0.11E+00seconds
 time_step_loc    9.5129375951293768E-006
(PID.TID 0000.0001) END STREAMICE_ADVECT_THICKNESS
 cg2d: Sum(rhs),rhsMax =   1.23358635624637E-01  5.71288581361239E+01
(PID.TID 0000.0001)      cg2d_init_res =   7.87987307899592E-05
(PID.TID 0000.0001)      cg2d_iters(min,last) =      -1     115
(PID.TID 0000.0001)      cg2d_last_res =   5.46788903902244E-12
(PID.TID 0000.0001) CALLING FILL DIAGNOSTICS
(PID.TID 0000.0001) // =======================================================
(PID.TID 0000.0001) // Begin MONITOR dynamic field statistics
(PID.TID 0000.0001) // =======================================================
(PID.TID 0000.0001) %MON time_tsnumber                =                 11401
(PID.TID 0000.0001) %MON time_secondsf                =   3.4203000000000E+06
(PID.TID 0000.0001) %MON dynstat_eta_max              =   2.4707439423285E+00
(PID.TID 0000.0001) %MON dynstat_eta_min              =  -7.4988216337029E+00
(PID.TID 0000.0001) %MON dynstat_eta_mean             =  -1.3358203163809E+00
(PID.TID 0000.0001) %MON dynstat_eta_sd               =   2.4335393102799E+00
(PID.TID 0000.0001) %MON dynstat_eta_del2             =   1.8281088783600E-01
(PID.TID 0000.0001) %MON dynstat_uvel_max             =   6.5748420692021E-12
(PID.TID 0000.0001) %MON dynstat_uvel_min             =  -6.5671518336697E-12
(PID.TID 0000.0001) %MON dynstat_uvel_mean            =  -8.9949094297095E-26
(PID.TID 0000.0001) %MON dynstat_uvel_sd              =   9.4955340905053E-13
(PID.TID 0000.0001) %MON dynstat_uvel_del2            =   2.3159063349460E-14
(PID.TID 0000.0001) %MON dynstat_vvel_max             =   1.9870054862688E-01
(PID.TID 0000.0001) %MON dynstat_vvel_min             =  -1.1044602774519E-01
(PID.TID 0000.0001) %MON dynstat_vvel_mean            =   6.0818362815069E-07
(PID.TID 0000.0001) %MON dynstat_vvel_sd              =   5.1894791742894E-02
(PID.TID 0000.0001) %MON dynstat_vvel_del2            =   1.5279738162109E-05
(PID.TID 0000.0001) %MON dynstat_wvel_max             =   1.2387184445446E-02
(PID.TID 0000.0001) %MON dynstat_wvel_min             =  -7.7787164056348E-03
(PID.TID 0000.0001) %MON dynstat_wvel_mean            =   3.0020047652253E-05
(PID.TID 0000.0001) %MON dynstat_wvel_sd              =   6.8037112261892E-04
(PID.TID 0000.0001) %MON dynstat_wvel_del2            =   3.9289616252145E-06
(PID.TID 0000.0001) %MON dynstat_theta_max            =   1.9439561247529E+00
(PID.TID 0000.0001) %MON dynstat_theta_min            =  -1.8515278879263E+00
(PID.TID 0000.0001) %MON dynstat_theta_mean           =   2.2487862138970E-02
(PID.TID 0000.0001) %MON dynstat_theta_sd             =   1.2764525257813E+00
(PID.TID 0000.0001) %MON dynstat_theta_del2           =   5.7999690490837E-05
(PID.TID 0000.0001) %MON dynstat_salt_max             =   3.4692814887789E+01
(PID.TID 0000.0001) %MON dynstat_salt_min             =   3.3812074519917E+01
(PID.TID 0000.0001) %MON dynstat_salt_mean            =   3.4431626015306E+01
(PID.TID 0000.0001) %MON dynstat_salt_sd              =   1.8349706354534E-01
(PID.TID 0000.0001) %MON dynstat_salt_del2            =   1.6113968064714E-05
(PID.TID 0000.0001) %MON advcfl_uvel_max              =   5.1975592351743E-13
(PID.TID 0000.0001) %MON advcfl_vvel_max              =   6.8629919688062E-02
(PID.TID 0000.0001) %MON advcfl_wvel_max              =   3.7161553336337E-01
(PID.TID 0000.0001) %MON advcfl_W_hf_max              =   3.7161553336337E-01
(PID.TID 0000.0001) %MON pe_b_mean                    =  -2.8129423069652E-01
(PID.TID 0000.0001) %MON ke_max                       =   1.9727193284465E-02
(PID.TID 0000.0001) %MON ke_mean                      =   1.3465007575748E-03
(PID.TID 0000.0001) %MON ke_vol                       =   1.3174242022986E+12
(PID.TID 0000.0001) // =======================================================
(PID.TID 0000.0001) // End MONITOR dynamic field statistics
(PID.TID 0000.0001) // =======================================================
(PID.TID 0000.0001) // =======================================================
(PID.TID 0000.0001) // Begin OBCS MONITOR field statistics
(PID.TID 0000.0001) // =======================================================
(PID.TID 0000.0001) %MON obc_N_vVel_max               =   2.5000000000000E-02
(PID.TID 0000.0001) %MON obc_N_vVel_min               =  -2.5000000000000E-02
(PID.TID 0000.0001) %MON obc_N_vVel_mean              =   1.0701309254946E-18
(PID.TID 0000.0001) %MON obc_N_vVel_sd                =   1.4595032760272E-02
(PID.TID 0000.0001) %MON obc_N_vVel_Int               =   1.1141310096718E-11
(PID.TID 0000.0001) // =======================================================
(PID.TID 0000.0001) // End OBCS MONITOR field statistics
(PID.TID 0000.0001) // =======================================================
 Computing Diagnostic #    209  SHIfwFlx     Counter:       1   Parms: SM      L1      
 Computing Diagnostic #    210  SHIhtFlx     Counter:       1   Parms: SM      L1      
 Computing Diagnostic #    215  SHIgammT     Counter:       1   Parms: SM      L1      
 Computing Diagnostic #    216  SHIgammS     Counter:       1   Parms: SM      L1      
 Computing Diagnostic #    218  SHI_mass     Counter:       1   Parms: SM      L1      
 Computing Diagnostic #    219  SHIRshel     Counter:       1   Parms: SM      L1      
 Computing Diagnostic #    194  SI_Uvel      Counter:       1   Parms: UZ      L1      
 Computing Diagnostic #    195  SI_Vvel      Counter:       1   Parms: VZ      L1      
 Computing Diagnostic #    196  SI_Thick     Counter:       1   Parms: SM      L1      
 Computing Diagnostic #    199  SI_hmask     Counter:       1   Parms: SM      L1      
 Computing Diagnostic #    198  SI_float     Counter:       1   Parms: SM      L1      
 Computing Diagnostic #    217  SHIuStar     Counter:       1   Parms: SM      L1      
(PID.TID 0000.0001) streamice solo_time_step: nIter0000011401 0.11E+00seconds
 time_step_loc    9.5129375951293768E-006
(PID.TID 0000.0001) END STREAMICE_ADVECT_THICKNESS
 cg2d: Sum(rhs),rhsMax =   1.23351178087110E-01  5.71287323004486E+01
(PID.TID 0000.0001)      cg2d_init_res =   6.79476187870032E-05
(PID.TID 0000.0001)      cg2d_iters(min,last) =      -1     115
(PID.TID 0000.0001)      cg2d_last_res =   5.54184410605902E-12
(PID.TID 0000.0001) CALLING FILL DIAGNOSTICS
(PID.TID 0000.0001) // =======================================================
(PID.TID 0000.0001) // Begin MONITOR dynamic field statistics
(PID.TID 0000.0001) // =======================================================
(PID.TID 0000.0001) %MON time_tsnumber                =                 11402
(PID.TID 0000.0001) %MON time_secondsf                =   3.4206000000000E+06
(PID.TID 0000.0001) %MON dynstat_eta_max              =   2.4709283510692E+00
(PID.TID 0000.0001) %MON dynstat_eta_min              =  -7.4986358578118E+00
(PID.TID 0000.0001) %MON dynstat_eta_mean             =  -1.3357366183564E+00
(PID.TID 0000.0001) %MON dynstat_eta_sd               =   2.4334880789221E+00
(PID.TID 0000.0001) %MON dynstat_eta_del2             =   1.8281084617163E-01
(PID.TID 0000.0001) %MON dynstat_uvel_max             =   6.7076206637044E-12
(PID.TID 0000.0001) %MON dynstat_uvel_min             =  -6.7114994161841E-12
(PID.TID 0000.0001) %MON dynstat_uvel_mean            =  -9.0457677026896E-26
(PID.TID 0000.0001) %MON dynstat_uvel_sd              =   9.5324489224321E-13
(PID.TID 0000.0001) %MON dynstat_uvel_del2            =   2.3249097853395E-14
(PID.TID 0000.0001) %MON dynstat_vvel_max             =   1.9870381388329E-01
(PID.TID 0000.0001) %MON dynstat_vvel_min             =  -1.1044349939054E-01
(PID.TID 0000.0001) %MON dynstat_vvel_mean            =   7.0446067302275E-07
(PID.TID 0000.0001) %MON dynstat_vvel_sd              =   5.1897102432644E-02
(PID.TID 0000.0001) %MON dynstat_vvel_del2            =   1.5269207837210E-05
(PID.TID 0000.0001) %MON dynstat_wvel_max             =   1.2386942422685E-02
(PID.TID 0000.0001) %MON dynstat_wvel_min             =  -7.7799640431294E-03
(PID.TID 0000.0001) %MON dynstat_wvel_mean            =   3.0020446300294E-05
(PID.TID 0000.0001) %MON dynstat_wvel_sd              =   6.8039227161317E-04
(PID.TID 0000.0001) %MON dynstat_wvel_del2            =   3.9291764659491E-06
(PID.TID 0000.0001) %MON dynstat_theta_max            =   1.9439568466142E+00
(PID.TID 0000.0001) %MON dynstat_theta_min            =  -1.8515203620922E+00
(PID.TID 0000.0001) %MON dynstat_theta_mean           =   2.2499419979259E-02
(PID.TID 0000.0001) %MON dynstat_theta_sd             =   1.2764494876978E+00
(PID.TID 0000.0001) %MON dynstat_theta_del2           =   5.7935189947903E-05
(PID.TID 0000.0001) %MON dynstat_salt_max             =   3.4692814980335E+01
(PID.TID 0000.0001) %MON dynstat_salt_min             =   3.3812067941233E+01
(PID.TID 0000.0001) %MON dynstat_salt_mean            =   3.4431626718889E+01
(PID.TID 0000.0001) %MON dynstat_salt_sd              =   1.8349771279505E-01
(PID.TID 0000.0001) %MON dynstat_salt_del2            =   1.6072785968812E-05
(PID.TID 0000.0001) %MON advcfl_uvel_max              =   5.3059542914196E-13
(PID.TID 0000.0001) %MON advcfl_vvel_max              =   6.8631047487090E-02
(PID.TID 0000.0001) %MON advcfl_wvel_max              =   3.7160827268054E-01
(PID.TID 0000.0001) %MON advcfl_W_hf_max              =   3.7160827268054E-01
(PID.TID 0000.0001) %MON pe_b_mean                    =  -2.8127707333769E-01
(PID.TID 0000.0001) %MON ke_max                       =   1.9727902629492E-02
(PID.TID 0000.0001) %MON ke_mean                      =   1.3466207026218E-03
(PID.TID 0000.0001) %MON ke_vol                       =   1.3174243610177E+12
(PID.TID 0000.0001) // =======================================================
(PID.TID 0000.0001) // End MONITOR dynamic field statistics
(PID.TID 0000.0001) // =======================================================
(PID.TID 0000.0001) // =======================================================
(PID.TID 0000.0001) // Begin OBCS MONITOR field statistics
(PID.TID 0000.0001) // =======================================================
(PID.TID 0000.0001) %MON obc_N_vVel_max               =   2.5000000000000E-02
(PID.TID 0000.0001) %MON obc_N_vVel_min               =  -2.5000000000000E-02
(PID.TID 0000.0001) %MON obc_N_vVel_mean              =   1.0701309254946E-18
(PID.TID 0000.0001) %MON obc_N_vVel_sd                =   1.4595032760272E-02
(PID.TID 0000.0001) %MON obc_N_vVel_Int               =   1.1141310096718E-11
(PID.TID 0000.0001) // =======================================================
(PID.TID 0000.0001) // End OBCS MONITOR field statistics
(PID.TID 0000.0001) // =======================================================
 Computing Diagnostic #    209  SHIfwFlx     Counter:       1   Parms: SM      L1      
 Computing Diagnostic #    210  SHIhtFlx     Counter:       1   Parms: SM      L1      
 Computing Diagnostic #    215  SHIgammT     Counter:       1   Parms: SM      L1      
 Computing Diagnostic #    216  SHIgammS     Counter:       1   Parms: SM      L1      
 Computing Diagnostic #    218  SHI_mass     Counter:       1   Parms: SM      L1      
 Computing Diagnostic #    219  SHIRshel     Counter:       1   Parms: SM      L1      
 Computing Diagnostic #    194  SI_Uvel      Counter:       1   Parms: UZ      L1      
 Computing Diagnostic #    195  SI_Vvel      Counter:       1   Parms: VZ      L1      
 Computing Diagnostic #    196  SI_Thick     Counter:       1   Parms: SM      L1      
 Computing Diagnostic #    199  SI_hmask     Counter:       1   Parms: SM      L1      
 Computing Diagnostic #    198  SI_float     Counter:       1   Parms: SM      L1      
 Computing Diagnostic #    217  SHIuStar     Counter:       1   Parms: SM      L1      
(PID.TID 0000.0001) streamice solo_time_step: nIter0000011402 0.11E+00seconds
 time_step_loc    9.5129375951293768E-006
(PID.TID 0000.0001) END STREAMICE_ADVECT_THICKNESS
 cg2d: Sum(rhs),rhsMax =   1.23343719309751E-01  5.71286066683827E+01
(PID.TID 0000.0001)      cg2d_init_res =   6.78207744270266E-05
(PID.TID 0000.0001)      cg2d_iters(min,last) =      -1     115
(PID.TID 0000.0001)      cg2d_last_res =   5.48984647095847E-12
(PID.TID 0000.0001) CALLING FILL DIAGNOSTICS
(PID.TID 0000.0001) // =======================================================
(PID.TID 0000.0001) // Begin MONITOR dynamic field statistics
(PID.TID 0000.0001) // =======================================================
(PID.TID 0000.0001) %MON time_tsnumber                =                 11403
(PID.TID 0000.0001) %MON time_secondsf                =   3.4209000000000E+06
(PID.TID 0000.0001) %MON dynstat_eta_max              =   2.4711124176803E+00
(PID.TID 0000.0001) %MON dynstat_eta_min              =  -7.4984598521952E+00
(PID.TID 0000.0001) %MON dynstat_eta_mean             =  -1.3356529120222E+00
(PID.TID 0000.0001) %MON dynstat_eta_sd               =   2.4334371822967E+00
(PID.TID 0000.0001) %MON dynstat_eta_del2             =   1.8281081122538E-01
(PID.TID 0000.0001) %MON dynstat_uvel_max             =   6.9113200621810E-12
(PID.TID 0000.0001) %MON dynstat_uvel_min             =  -6.9216730998164E-12
(PID.TID 0000.0001) %MON dynstat_uvel_mean            =  -8.8692224885828E-26
(PID.TID 0000.0001) %MON dynstat_uvel_sd              =   9.4173890268191E-13
(PID.TID 0000.0001) %MON dynstat_uvel_del2            =   2.2967988115900E-14
(PID.TID 0000.0001) %MON dynstat_vvel_max             =   1.9870705747072E-01
(PID.TID 0000.0001) %MON dynstat_vvel_min             =  -1.1044093908752E-01
(PID.TID 0000.0001) %MON dynstat_vvel_mean            =   7.5258497498956E-07
(PID.TID 0000.0001) %MON dynstat_vvel_sd              =   5.1899371806940E-02
(PID.TID 0000.0001) %MON dynstat_vvel_del2            =   1.5248664241856E-05
(PID.TID 0000.0001) %MON dynstat_wvel_max             =   1.2386700425027E-02
(PID.TID 0000.0001) %MON dynstat_wvel_min             =  -7.7812120774519E-03
(PID.TID 0000.0001) %MON dynstat_wvel_mean            =   3.0020757400696E-05
(PID.TID 0000.0001) %MON dynstat_wvel_sd              =   6.8041591204931E-04
(PID.TID 0000.0001) %MON dynstat_wvel_del2            =   3.9295014014256E-06
(PID.TID 0000.0001) %MON dynstat_theta_max            =   1.9439575684925E+00
(PID.TID 0000.0001) %MON dynstat_theta_min            =  -1.8515128247230E+00
(PID.TID 0000.0001) %MON dynstat_theta_mean           =   2.2510968893497E-02
(PID.TID 0000.0001) %MON dynstat_theta_sd             =   1.2764464564345E+00
(PID.TID 0000.0001) %MON dynstat_theta_del2           =   5.7885820897482E-05
(PID.TID 0000.0001) %MON dynstat_salt_max             =   3.4692815072884E+01
(PID.TID 0000.0001) %MON dynstat_salt_min             =   3.3812061440826E+01
(PID.TID 0000.0001) %MON dynstat_salt_mean            =   3.4431627421440E+01
(PID.TID 0000.0001) %MON dynstat_salt_sd              =   1.8349836662373E-01
(PID.TID 0000.0001) %MON dynstat_salt_del2            =   1.6040780510987E-05
(PID.TID 0000.0001) %MON advcfl_uvel_max              =   5.4743665673219E-13
(PID.TID 0000.0001) %MON advcfl_vvel_max              =   6.8632167801785E-02
(PID.TID 0000.0001) %MON advcfl_wvel_max              =   3.7160101275082E-01
(PID.TID 0000.0001) %MON advcfl_W_hf_max              =   3.7160101275082E-01
(PID.TID 0000.0001) %MON pe_b_mean                    =  -2.8125994115658E-01
(PID.TID 0000.0001) %MON ke_max                       =   1.9728605145269E-02
(PID.TID 0000.0001) %MON ke_mean                      =   1.3467385081949E-03
(PID.TID 0000.0001) %MON ke_vol                       =   1.3174245197265E+12
(PID.TID 0000.0001) // =======================================================
(PID.TID 0000.0001) // End MONITOR dynamic field statistics
(PID.TID 0000.0001) // =======================================================
(PID.TID 0000.0001) // =======================================================
(PID.TID 0000.0001) // Begin OBCS MONITOR field statistics
(PID.TID 0000.0001) // =======================================================
(PID.TID 0000.0001) %MON obc_N_vVel_max               =   2.5000000000000E-02
(PID.TID 0000.0001) %MON obc_N_vVel_min               =  -2.5000000000000E-02
(PID.TID 0000.0001) %MON obc_N_vVel_mean              =   1.0701309254946E-18
(PID.TID 0000.0001) %MON obc_N_vVel_sd                =   1.4595032760272E-02
(PID.TID 0000.0001) %MON obc_N_vVel_Int               =   1.1141310096718E-11
(PID.TID 0000.0001) // =======================================================
(PID.TID 0000.0001) // End OBCS MONITOR field statistics
(PID.TID 0000.0001) // =======================================================
 Computing Diagnostic #    209  SHIfwFlx     Counter:       1   Parms: SM      L1      
 Computing Diagnostic #    210  SHIhtFlx     Counter:       1   Parms: SM      L1      
 Computing Diagnostic #    215  SHIgammT     Counter:       1   Parms: SM      L1      
 Computing Diagnostic #    216  SHIgammS     Counter:       1   Parms: SM      L1      
 Computing Diagnostic #    218  SHI_mass     Counter:       1   Parms: SM      L1      
 Computing Diagnostic #    219  SHIRshel     Counter:       1   Parms: SM      L1      
 Computing Diagnostic #    194  SI_Uvel      Counter:       1   Parms: UZ      L1      
 Computing Diagnostic #    195  SI_Vvel      Counter:       1   Parms: VZ      L1      
 Computing Diagnostic #    196  SI_Thick     Counter:       1   Parms: SM      L1      
 Computing Diagnostic #    199  SI_hmask     Counter:       1   Parms: SM      L1      
 Computing Diagnostic #    198  SI_float     Counter:       1   Parms: SM      L1      
 Computing Diagnostic #    217  SHIuStar     Counter:       1   Parms: SM      L1      
(PID.TID 0000.0001) streamice solo_time_step: nIter0000011403 0.11E+00seconds
 time_step_loc    9.5129375951293768E-006
(PID.TID 0000.0001) END STREAMICE_ADVECT_THICKNESS
 cg2d: Sum(rhs),rhsMax =   1.23336260144183E-01  5.71284810370348E+01
(PID.TID 0000.0001)      cg2d_init_res =   6.78418709420691E-05
(PID.TID 0000.0001)      cg2d_iters(min,last) =      -1     115
(PID.TID 0000.0001)      cg2d_last_res =   5.51327403097573E-12
(PID.TID 0000.0001) CALLING FILL DIAGNOSTICS
(PID.TID 0000.0001) // =======================================================
(PID.TID 0000.0001) // Begin MONITOR dynamic field statistics
(PID.TID 0000.0001) // =======================================================
(PID.TID 0000.0001) %MON time_tsnumber                =                 11404
(PID.TID 0000.0001) %MON time_secondsf                =   3.4212000000000E+06
(PID.TID 0000.0001) %MON dynstat_eta_max              =   2.4712967225924E+00
(PID.TID 0000.0001) %MON dynstat_eta_min              =  -7.4982833263101E+00
(PID.TID 0000.0001) %MON dynstat_eta_mean             =  -1.3355692018562E+00
(PID.TID 0000.0001) %MON dynstat_eta_sd               =   2.4333863454083E+00
(PID.TID 0000.0001) %MON dynstat_eta_del2             =   1.8281077653240E-01
(PID.TID 0000.0001) %MON dynstat_uvel_max             =   6.7117120952803E-12
(PID.TID 0000.0001) %MON dynstat_uvel_min             =  -6.7186118596968E-12
(PID.TID 0000.0001) %MON dynstat_uvel_mean            =  -9.0364365693169E-26
(PID.TID 0000.0001) %MON dynstat_uvel_sd              =   9.4288640341378E-13
(PID.TID 0000.0001) %MON dynstat_uvel_del2            =   2.2995738472949E-14
(PID.TID 0000.0001) %MON dynstat_vvel_max             =   1.9871029031489E-01
(PID.TID 0000.0001) %MON dynstat_vvel_min             =  -1.1043842487854E-01
(PID.TID 0000.0001) %MON dynstat_vvel_mean            =   7.8568279445833E-07
(PID.TID 0000.0001) %MON dynstat_vvel_sd              =   5.1901683200549E-02
(PID.TID 0000.0001) %MON dynstat_vvel_del2            =   1.5244147156218E-05
(PID.TID 0000.0001) %MON dynstat_wvel_max             =   1.2386441405286E-02
(PID.TID 0000.0001) %MON dynstat_wvel_min             =  -7.7824607164020E-03
(PID.TID 0000.0001) %MON dynstat_wvel_mean            =   3.0020893703131E-05
(PID.TID 0000.0001) %MON dynstat_wvel_sd              =   6.8043788094522E-04
(PID.TID 0000.0001) %MON dynstat_wvel_del2            =   3.9297554347796E-06
(PID.TID 0000.0001) %MON dynstat_theta_max            =   1.9439582903806E+00
(PID.TID 0000.0001) %MON dynstat_theta_min            =  -1.8515052758098E+00
(PID.TID 0000.0001) %MON dynstat_theta_mean           =   2.2522509627509E-02
(PID.TID 0000.0001) %MON dynstat_theta_sd             =   1.2764434305363E+00
(PID.TID 0000.0001) %MON dynstat_theta_del2           =   5.7848496176023E-05
(PID.TID 0000.0001) %MON dynstat_salt_max             =   3.4692815165433E+01
(PID.TID 0000.0001) %MON dynstat_salt_min             =   3.3812055015477E+01
(PID.TID 0000.0001) %MON dynstat_salt_mean            =   3.4431628123287E+01
(PID.TID 0000.0001) %MON dynstat_salt_sd              =   1.8349902345136E-01
(PID.TID 0000.0001) %MON dynstat_salt_del2            =   1.6016108892708E-05
(PID.TID 0000.0001) %MON advcfl_uvel_max              =   5.3157183045636E-13
(PID.TID 0000.0001) %MON advcfl_vvel_max              =   6.8633284405829E-02
(PID.TID 0000.0001) %MON advcfl_wvel_max              =   3.7159324215857E-01
(PID.TID 0000.0001) %MON advcfl_W_hf_max              =   3.7159324215857E-01
(PID.TID 0000.0001) %MON pe_b_mean                    =  -2.8124281940316E-01
(PID.TID 0000.0001) %MON ke_max                       =   1.9729302979374E-02
(PID.TID 0000.0001) %MON ke_mean                      =   1.3468585003173E-03
(PID.TID 0000.0001) %MON ke_vol                       =   1.3174246784510E+12
(PID.TID 0000.0001) // =======================================================
(PID.TID 0000.0001) // End MONITOR dynamic field statistics
(PID.TID 0000.0001) // =======================================================
(PID.TID 0000.0001) // =======================================================
(PID.TID 0000.0001) // Begin OBCS MONITOR field statistics
(PID.TID 0000.0001) // =======================================================
(PID.TID 0000.0001) %MON obc_N_vVel_max               =   2.5000000000000E-02
(PID.TID 0000.0001) %MON obc_N_vVel_min               =  -2.5000000000000E-02
(PID.TID 0000.0001) %MON obc_N_vVel_mean              =   1.0701309254946E-18
(PID.TID 0000.0001) %MON obc_N_vVel_sd                =   1.4595032760272E-02
(PID.TID 0000.0001) %MON obc_N_vVel_Int               =   1.1141310096718E-11
(PID.TID 0000.0001) // =======================================================
(PID.TID 0000.0001) // End OBCS MONITOR field statistics
(PID.TID 0000.0001) // =======================================================
 Computing Diagnostic #    209  SHIfwFlx     Counter:       1   Parms: SM      L1      
 Computing Diagnostic #    210  SHIhtFlx     Counter:       1   Parms: SM      L1      
 Computing Diagnostic #    215  SHIgammT     Counter:       1   Parms: SM      L1      
 Computing Diagnostic #    216  SHIgammS     Counter:       1   Parms: SM      L1      
 Computing Diagnostic #    218  SHI_mass     Counter:       1   Parms: SM      L1      
 Computing Diagnostic #    219  SHIRshel     Counter:       1   Parms: SM      L1      
 Computing Diagnostic #    194  SI_Uvel      Counter:       1   Parms: UZ      L1      
 Computing Diagnostic #    195  SI_Vvel      Counter:       1   Parms: VZ      L1      
 Computing Diagnostic #    196  SI_Thick     Counter:       1   Parms: SM      L1      
 Computing Diagnostic #    199  SI_hmask     Counter:       1   Parms: SM      L1      
 Computing Diagnostic #    198  SI_float     Counter:       1   Parms: SM      L1      
 Computing Diagnostic #    217  SHIuStar     Counter:       1   Parms: SM      L1      
(PID.TID 0000.0001) streamice solo_time_step: nIter0000011404 0.11E+00seconds
 time_step_loc    9.5129375951293768E-006
(PID.TID 0000.0001) END STREAMICE_ADVECT_THICKNESS
 cg2d: Sum(rhs),rhsMax =   1.23328800503581E-01  5.71283553499792E+01
(PID.TID 0000.0001)      cg2d_init_res =   6.78600454098732E-05
(PID.TID 0000.0001)      cg2d_iters(min,last) =      -1     115
(PID.TID 0000.0001)      cg2d_last_res =   5.52055739694975E-12
(PID.TID 0000.0001) CALLING FILL DIAGNOSTICS
(PID.TID 0000.0001) // =======================================================
(PID.TID 0000.0001) // Begin MONITOR dynamic field statistics
(PID.TID 0000.0001) // =======================================================
(PID.TID 0000.0001) %MON time_tsnumber                =                 11405
(PID.TID 0000.0001) %MON time_secondsf                =   3.4215000000000E+06
(PID.TID 0000.0001) %MON dynstat_eta_max              =   2.4714814134925E+00
(PID.TID 0000.0001) %MON dynstat_eta_min              =  -7.4981071882924E+00
(PID.TID 0000.0001) %MON dynstat_eta_mean             =  -1.3354854855992E+00
(PID.TID 0000.0001) %MON dynstat_eta_sd               =   2.4333355068239E+00
(PID.TID 0000.0001) %MON dynstat_eta_del2             =   1.8281074128447E-01
(PID.TID 0000.0001) %MON dynstat_uvel_max             =   6.7500686717287E-12
(PID.TID 0000.0001) %MON dynstat_uvel_min             =  -6.7765520606545E-12
(PID.TID 0000.0001) %MON dynstat_uvel_mean            =  -9.0158815919298E-26
(PID.TID 0000.0001) %MON dynstat_uvel_sd              =   9.4526734256170E-13
(PID.TID 0000.0001) %MON dynstat_uvel_del2            =   2.3054031185732E-14
(PID.TID 0000.0001) %MON dynstat_vvel_max             =   1.9871355371428E-01
(PID.TID 0000.0001) %MON dynstat_vvel_min             =  -1.1043596614980E-01
(PID.TID 0000.0001) %MON dynstat_vvel_mean            =   7.8196411090887E-07
(PID.TID 0000.0001) %MON dynstat_vvel_sd              =   5.1904003748954E-02
(PID.TID 0000.0001) %MON dynstat_vvel_del2            =   1.5244159430988E-05
(PID.TID 0000.0001) %MON dynstat_wvel_max             =   1.2386169984427E-02
(PID.TID 0000.0001) %MON dynstat_wvel_min             =  -7.7837106889240E-03
(PID.TID 0000.0001) %MON dynstat_wvel_mean            =   3.0020843881673E-05
(PID.TID 0000.0001) %MON dynstat_wvel_sd              =   6.8045970385454E-04
(PID.TID 0000.0001) %MON dynstat_wvel_del2            =   3.9300169101686E-06
(PID.TID 0000.0001) %MON dynstat_theta_max            =   1.9439590122695E+00
(PID.TID 0000.0001) %MON dynstat_theta_min            =  -1.8514977152422E+00
(PID.TID 0000.0001) %MON dynstat_theta_mean           =   2.2534041957730E-02
(PID.TID 0000.0001) %MON dynstat_theta_sd             =   1.2764404099231E+00
(PID.TID 0000.0001) %MON dynstat_theta_del2           =   5.7820256755765E-05
(PID.TID 0000.0001) %MON dynstat_salt_max             =   3.4692815257983E+01
(PID.TID 0000.0001) %MON dynstat_salt_min             =   3.3812048667482E+01
(PID.TID 0000.0001) %MON dynstat_salt_mean            =   3.4431628824344E+01
(PID.TID 0000.0001) %MON dynstat_salt_sd              =   1.8349968308975E-01
(PID.TID 0000.0001) %MON dynstat_salt_del2            =   1.5996970059087E-05
(PID.TID 0000.0001) %MON advcfl_uvel_max              =   5.3595900164004E-13
(PID.TID 0000.0001) %MON advcfl_vvel_max              =   6.8634411563449E-02
(PID.TID 0000.0001) %MON advcfl_wvel_max              =   3.7158509953281E-01
(PID.TID 0000.0001) %MON advcfl_W_hf_max              =   3.7158509953281E-01
(PID.TID 0000.0001) %MON pe_b_mean                    =  -2.8122569216840E-01
(PID.TID 0000.0001) %MON ke_max                       =   1.9730005380674E-02
(PID.TID 0000.0001) %MON ke_mean                      =   1.3469789730477E-03
(PID.TID 0000.0001) %MON ke_vol                       =   1.3174248371828E+12
(PID.TID 0000.0001) // =======================================================
(PID.TID 0000.0001) // End MONITOR dynamic field statistics
(PID.TID 0000.0001) // =======================================================
(PID.TID 0000.0001) // =======================================================
(PID.TID 0000.0001) // Begin OBCS MONITOR field statistics
(PID.TID 0000.0001) // =======================================================
(PID.TID 0000.0001) %MON obc_N_vVel_max               =   2.5000000000000E-02
(PID.TID 0000.0001) %MON obc_N_vVel_min               =  -2.5000000000000E-02
(PID.TID 0000.0001) %MON obc_N_vVel_mean              =   1.0701309254946E-18
(PID.TID 0000.0001) %MON obc_N_vVel_sd                =   1.4595032760272E-02
(PID.TID 0000.0001) %MON obc_N_vVel_Int               =   1.1141310096718E-11
(PID.TID 0000.0001) // =======================================================
(PID.TID 0000.0001) // End OBCS MONITOR field statistics
(PID.TID 0000.0001) // =======================================================
 Computing Diagnostic #    209  SHIfwFlx     Counter:       1   Parms: SM      L1      
 Computing Diagnostic #    210  SHIhtFlx     Counter:       1   Parms: SM      L1      
 Computing Diagnostic #    215  SHIgammT     Counter:       1   Parms: SM      L1      
 Computing Diagnostic #    216  SHIgammS     Counter:       1   Parms: SM      L1      
 Computing Diagnostic #    218  SHI_mass     Counter:       1   Parms: SM      L1      
 Computing Diagnostic #    219  SHIRshel     Counter:       1   Parms: SM      L1      
 Computing Diagnostic #    194  SI_Uvel      Counter:       1   Parms: UZ      L1      
 Computing Diagnostic #    195  SI_Vvel      Counter:       1   Parms: VZ      L1      
 Computing Diagnostic #    196  SI_Thick     Counter:       1   Parms: SM      L1      
 Computing Diagnostic #    199  SI_hmask     Counter:       1   Parms: SM      L1      
 Computing Diagnostic #    198  SI_float     Counter:       1   Parms: SM      L1      
 Computing Diagnostic #    217  SHIuStar     Counter:       1   Parms: SM      L1      
(PID.TID 0000.0001) streamice solo_time_step: nIter0000011405 0.11E+00seconds
 time_step_loc    9.5129375951293768E-006
(PID.TID 0000.0001) END STREAMICE_ADVECT_THICKNESS
 cg2d: Sum(rhs),rhsMax =   1.23321340313415E-01  5.71282296354219E+01
(PID.TID 0000.0001)      cg2d_init_res =   6.78784112222550E-05
(PID.TID 0000.0001)      cg2d_iters(min,last) =      -1     115
(PID.TID 0000.0001)      cg2d_last_res =   5.52219657446480E-12
(PID.TID 0000.0001) CALLING FILL DIAGNOSTICS
(PID.TID 0000.0001) // =======================================================
(PID.TID 0000.0001) // Begin MONITOR dynamic field statistics
(PID.TID 0000.0001) // =======================================================
(PID.TID 0000.0001) %MON time_tsnumber                =                 11406
(PID.TID 0000.0001) %MON time_secondsf                =   3.4218000000000E+06
(PID.TID 0000.0001) %MON dynstat_eta_max              =   2.4716664625976E+00
(PID.TID 0000.0001) %MON dynstat_eta_min              =  -7.4979305040972E+00
(PID.TID 0000.0001) %MON dynstat_eta_mean             =  -1.3354017631038E+00
(PID.TID 0000.0001) %MON dynstat_eta_sd               =   2.4332845748784E+00
(PID.TID 0000.0001) %MON dynstat_eta_del2             =   1.8281070535553E-01
(PID.TID 0000.0001) %MON dynstat_uvel_max             =   6.7258527672685E-12
(PID.TID 0000.0001) %MON dynstat_uvel_min             =  -6.7495319640938E-12
(PID.TID 0000.0001) %MON dynstat_uvel_mean            =  -9.2169363626812E-26
(PID.TID 0000.0001) %MON dynstat_uvel_sd              =   9.4520734897670E-13
(PID.TID 0000.0001) %MON dynstat_uvel_del2            =   2.3052217684331E-14
(PID.TID 0000.0001) %MON dynstat_vvel_max             =   1.9871687288109E-01
(PID.TID 0000.0001) %MON dynstat_vvel_min             =  -1.1043354792579E-01
(PID.TID 0000.0001) %MON dynstat_vvel_mean            =   7.4605958335137E-07
(PID.TID 0000.0001) %MON dynstat_vvel_sd              =   5.1906330396699E-02
(PID.TID 0000.0001) %MON dynstat_vvel_del2            =   1.5245748131690E-05
(PID.TID 0000.0001) %MON dynstat_wvel_max             =   1.2385893091866E-02
(PID.TID 0000.0001) %MON dynstat_wvel_min             =  -7.7849625657564E-03
(PID.TID 0000.0001) %MON dynstat_wvel_mean            =   3.0020673872464E-05
(PID.TID 0000.0001) %MON dynstat_wvel_sd              =   6.8048109585352E-04
(PID.TID 0000.0001) %MON dynstat_wvel_del2            =   3.9302580751073E-06
(PID.TID 0000.0001) %MON dynstat_theta_max            =   1.9439597341464E+00
(PID.TID 0000.0001) %MON dynstat_theta_min            =  -1.8514901428198E+00
(PID.TID 0000.0001) %MON dynstat_theta_mean           =   2.2545565912503E-02
(PID.TID 0000.0001) %MON dynstat_theta_sd             =   1.2764373942984E+00
(PID.TID 0000.0001) %MON dynstat_theta_del2           =   5.7798940909670E-05
(PID.TID 0000.0001) %MON dynstat_salt_max             =   3.4692815350532E+01
(PID.TID 0000.0001) %MON dynstat_salt_min             =   3.3812042398380E+01
(PID.TID 0000.0001) %MON dynstat_salt_mean            =   3.4431629524612E+01
(PID.TID 0000.0001) %MON dynstat_salt_sd              =   1.8350034519459E-01
(PID.TID 0000.0001) %MON dynstat_salt_del2            =   1.5982046967079E-05
(PID.TID 0000.0001) %MON advcfl_uvel_max              =   5.3375082054141E-13
(PID.TID 0000.0001) %MON advcfl_vvel_max              =   6.8635557982789E-02
(PID.TID 0000.0001) %MON advcfl_wvel_max              =   3.7157679275597E-01
(PID.TID 0000.0001) %MON advcfl_W_hf_max              =   3.7157679275597E-01
(PID.TID 0000.0001) %MON pe_b_mean                    =  -2.8120854909132E-01
(PID.TID 0000.0001) %MON ke_max                       =   1.9730717236575E-02
(PID.TID 0000.0001) %MON ke_mean                      =   1.3470997678166E-03
(PID.TID 0000.0001) %MON ke_vol                       =   1.3174249959261E+12
(PID.TID 0000.0001) // =======================================================
(PID.TID 0000.0001) // End MONITOR dynamic field statistics
(PID.TID 0000.0001) // =======================================================
(PID.TID 0000.0001) // =======================================================
(PID.TID 0000.0001) // Begin OBCS MONITOR field statistics
(PID.TID 0000.0001) // =======================================================
(PID.TID 0000.0001) %MON obc_N_vVel_max               =   2.5000000000000E-02
(PID.TID 0000.0001) %MON obc_N_vVel_min               =  -2.5000000000000E-02
(PID.TID 0000.0001) %MON obc_N_vVel_mean              =   1.0701309254946E-18
(PID.TID 0000.0001) %MON obc_N_vVel_sd                =   1.4595032760272E-02
(PID.TID 0000.0001) %MON obc_N_vVel_Int               =   1.1141310096718E-11
(PID.TID 0000.0001) // =======================================================
(PID.TID 0000.0001) // End OBCS MONITOR field statistics
(PID.TID 0000.0001) // =======================================================
 Computing Diagnostic #    209  SHIfwFlx     Counter:       1   Parms: SM      L1      
 Computing Diagnostic #    210  SHIhtFlx     Counter:       1   Parms: SM      L1      
 Computing Diagnostic #    215  SHIgammT     Counter:       1   Parms: SM      L1      
 Computing Diagnostic #    216  SHIgammS     Counter:       1   Parms: SM      L1      
 Computing Diagnostic #    218  SHI_mass     Counter:       1   Parms: SM      L1      
 Computing Diagnostic #    219  SHIRshel     Counter:       1   Parms: SM      L1      
 Computing Diagnostic #    194  SI_Uvel      Counter:       1   Parms: UZ      L1      
 Computing Diagnostic #    195  SI_Vvel      Counter:       1   Parms: VZ      L1      
 Computing Diagnostic #    196  SI_Thick     Counter:       1   Parms: SM      L1      
 Computing Diagnostic #    199  SI_hmask     Counter:       1   Parms: SM      L1      
 Computing Diagnostic #    198  SI_float     Counter:       1   Parms: SM      L1      
 Computing Diagnostic #    217  SHIuStar     Counter:       1   Parms: SM      L1      
(PID.TID 0000.0001) streamice solo_time_step: nIter0000011406 0.11E+00seconds
 time_step_loc    9.5129375951293768E-006
(PID.TID 0000.0001) END STREAMICE_ADVECT_THICKNESS
 cg2d: Sum(rhs),rhsMax =   1.23313879473930E-01  5.71281039218944E+01
(PID.TID 0000.0001)      cg2d_init_res =   6.78965580300772E-05
(PID.TID 0000.0001)      cg2d_iters(min,last) =      -1     115
(PID.TID 0000.0001)      cg2d_last_res =   5.52149243277677E-12
(PID.TID 0000.0001) CALLING FILL DIAGNOSTICS
(PID.TID 0000.0001) // =======================================================
(PID.TID 0000.0001) // Begin MONITOR dynamic field statistics
(PID.TID 0000.0001) // =======================================================
(PID.TID 0000.0001) %MON time_tsnumber                =                 11407
(PID.TID 0000.0001) %MON time_secondsf                =   3.4221000000000E+06
(PID.TID 0000.0001) %MON dynstat_eta_max              =   2.4718518380330E+00
(PID.TID 0000.0001) %MON dynstat_eta_min              =  -7.4977530588116E+00
(PID.TID 0000.0001) %MON dynstat_eta_mean             =  -1.3353180339567E+00
(PID.TID 0000.0001) %MON dynstat_eta_sd               =   2.4332335010326E+00
(PID.TID 0000.0001) %MON dynstat_eta_del2             =   1.8281066852749E-01
(PID.TID 0000.0001) %MON dynstat_uvel_max             =   6.7516743488376E-12
(PID.TID 0000.0001) %MON dynstat_uvel_min             =  -6.7830953320191E-12
(PID.TID 0000.0001) %MON dynstat_uvel_mean            =  -9.1820229102330E-26
(PID.TID 0000.0001) %MON dynstat_uvel_sd              =   9.4583252300308E-13
(PID.TID 0000.0001) %MON dynstat_uvel_del2            =   2.3067420394344E-14
(PID.TID 0000.0001) %MON dynstat_vvel_max             =   1.9872026421323E-01
(PID.TID 0000.0001) %MON dynstat_vvel_min             =  -1.1043115361142E-01
(PID.TID 0000.0001) %MON dynstat_vvel_mean            =   6.8690874198527E-07
(PID.TID 0000.0001) %MON dynstat_vvel_sd              =   5.1908657982047E-02
(PID.TID 0000.0001) %MON dynstat_vvel_del2            =   1.5247950159477E-05
(PID.TID 0000.0001) %MON dynstat_wvel_max             =   1.2385615781358E-02
(PID.TID 0000.0001) %MON dynstat_wvel_min             =  -7.7862163340570E-03
(PID.TID 0000.0001) %MON dynstat_wvel_mean            =   3.0020430499781E-05
(PID.TID 0000.0001) %MON dynstat_wvel_sd              =   6.8050250372645E-04
(PID.TID 0000.0001) %MON dynstat_wvel_del2            =   3.9304983560482E-06
(PID.TID 0000.0001) %MON dynstat_theta_max            =   1.9439604559957E+00
(PID.TID 0000.0001) %MON dynstat_theta_min            =  -1.8514825583309E+00
(PID.TID 0000.0001) %MON dynstat_theta_mean           =   2.2557081448086E-02
(PID.TID 0000.0001) %MON dynstat_theta_sd             =   1.2764343834906E+00
(PID.TID 0000.0001) %MON dynstat_theta_del2           =   5.7782895894170E-05
(PID.TID 0000.0001) %MON dynstat_salt_max             =   3.4692815443076E+01
(PID.TID 0000.0001) %MON dynstat_salt_min             =   3.3812036208622E+01
(PID.TID 0000.0001) %MON dynstat_salt_mean            =   3.4431630224063E+01
(PID.TID 0000.0001) %MON dynstat_salt_sd              =   1.8350100955911E-01
(PID.TID 0000.0001) %MON dynstat_salt_del2            =   1.5970331191474E-05
(PID.TID 0000.0001) %MON advcfl_uvel_max              =   5.3647651041982E-13
(PID.TID 0000.0001) %MON advcfl_vvel_max              =   6.8636729327578E-02
(PID.TID 0000.0001) %MON advcfl_wvel_max              =   3.7156847344073E-01
(PID.TID 0000.0001) %MON advcfl_W_hf_max              =   3.7156847344073E-01
(PID.TID 0000.0001) %MON pe_b_mean                    =  -2.8119138389633E-01
(PID.TID 0000.0001) %MON ke_max                       =   1.9731441742432E-02
(PID.TID 0000.0001) %MON ke_mean                      =   1.3472206166690E-03
(PID.TID 0000.0001) %MON ke_vol                       =   1.3174251546813E+12
(PID.TID 0000.0001) // =======================================================
(PID.TID 0000.0001) // End MONITOR dynamic field statistics
(PID.TID 0000.0001) // =======================================================
(PID.TID 0000.0001) // =======================================================
(PID.TID 0000.0001) // Begin OBCS MONITOR field statistics
(PID.TID 0000.0001) // =======================================================
(PID.TID 0000.0001) %MON obc_N_vVel_max               =   2.5000000000000E-02
(PID.TID 0000.0001) %MON obc_N_vVel_min               =  -2.5000000000000E-02
(PID.TID 0000.0001) %MON obc_N_vVel_mean              =   1.0701309254946E-18
(PID.TID 0000.0001) %MON obc_N_vVel_sd                =   1.4595032760272E-02
(PID.TID 0000.0001) %MON obc_N_vVel_Int               =   1.1141310096718E-11
(PID.TID 0000.0001) // =======================================================
(PID.TID 0000.0001) // End OBCS MONITOR field statistics
(PID.TID 0000.0001) // =======================================================
 Computing Diagnostic #    209  SHIfwFlx     Counter:       1   Parms: SM      L1      
 Computing Diagnostic #    210  SHIhtFlx     Counter:       1   Parms: SM      L1      
 Computing Diagnostic #    215  SHIgammT     Counter:       1   Parms: SM      L1      
 Computing Diagnostic #    216  SHIgammS     Counter:       1   Parms: SM      L1      
 Computing Diagnostic #    218  SHI_mass     Counter:       1   Parms: SM      L1      
 Computing Diagnostic #    219  SHIRshel     Counter:       1   Parms: SM      L1      
 Computing Diagnostic #    194  SI_Uvel      Counter:       1   Parms: UZ      L1      
 Computing Diagnostic #    195  SI_Vvel      Counter:       1   Parms: VZ      L1      
 Computing Diagnostic #    196  SI_Thick     Counter:       1   Parms: SM      L1      
 Computing Diagnostic #    199  SI_hmask     Counter:       1   Parms: SM      L1      
 Computing Diagnostic #    198  SI_float     Counter:       1   Parms: SM      L1      
 Computing Diagnostic #    217  SHIuStar     Counter:       1   Parms: SM      L1      
(PID.TID 0000.0001) streamice solo_time_step: nIter0000011407 0.11E+00seconds
 time_step_loc    9.5129375951293768E-006
(PID.TID 0000.0001) END STREAMICE_ADVECT_THICKNESS
 cg2d: Sum(rhs),rhsMax =   1.23306417943783E-01  5.71279782235834E+01
(PID.TID 0000.0001)      cg2d_init_res =   6.79114798596640E-05
(PID.TID 0000.0001)      cg2d_iters(min,last) =      -1     115
(PID.TID 0000.0001)      cg2d_last_res =   5.51963578986892E-12
(PID.TID 0000.0001) CALLING FILL DIAGNOSTICS
(PID.TID 0000.0001) // =======================================================
(PID.TID 0000.0001) // Begin MONITOR dynamic field statistics
(PID.TID 0000.0001) // =======================================================
(PID.TID 0000.0001) %MON time_tsnumber                =                 11408
(PID.TID 0000.0001) %MON time_secondsf                =   3.4224000000000E+06
(PID.TID 0000.0001) %MON dynstat_eta_max              =   2.4720375221384E+00
(PID.TID 0000.0001) %MON dynstat_eta_min              =  -7.4975746680083E+00
(PID.TID 0000.0001) %MON dynstat_eta_mean             =  -1.3352342980420E+00
(PID.TID 0000.0001) %MON dynstat_eta_sd               =   2.4331822647025E+00
(PID.TID 0000.0001) %MON dynstat_eta_del2             =   1.8281063091198E-01
(PID.TID 0000.0001) %MON dynstat_uvel_max             =   6.7541088258144E-12
(PID.TID 0000.0001) %MON dynstat_uvel_min             =  -6.7637707812899E-12
(PID.TID 0000.0001) %MON dynstat_uvel_mean            =  -9.2189220650614E-26
(PID.TID 0000.0001) %MON dynstat_uvel_sd              =   9.4536385703323E-13
(PID.TID 0000.0001) %MON dynstat_uvel_del2            =   2.3056114351419E-14
(PID.TID 0000.0001) %MON dynstat_vvel_max             =   1.9872374762851E-01
(PID.TID 0000.0001) %MON dynstat_vvel_min             =  -1.1042876621625E-01
(PID.TID 0000.0001) %MON dynstat_vvel_mean            =   6.1860489752635E-07
(PID.TID 0000.0001) %MON dynstat_vvel_sd              =   5.1910983994291E-02
(PID.TID 0000.0001) %MON dynstat_vvel_del2            =   1.5250044674315E-05
(PID.TID 0000.0001) %MON dynstat_wvel_max             =   1.2385342526752E-02
(PID.TID 0000.0001) %MON dynstat_wvel_min             =  -7.7874715602723E-03
(PID.TID 0000.0001) %MON dynstat_wvel_mean            =   3.0020159673974E-05
(PID.TID 0000.0001) %MON dynstat_wvel_sd              =   6.8052403282218E-04
(PID.TID 0000.0001) %MON dynstat_wvel_del2            =   3.9307376403018E-06
(PID.TID 0000.0001) %MON dynstat_theta_max            =   1.9439611778015E+00
(PID.TID 0000.0001) %MON dynstat_theta_min            =  -1.8514749616182E+00
(PID.TID 0000.0001) %MON dynstat_theta_mean           =   2.2568588541774E-02
(PID.TID 0000.0001) %MON dynstat_theta_sd             =   1.2764313773404E+00
(PID.TID 0000.0001) %MON dynstat_theta_del2           =   5.7770878600580E-05
(PID.TID 0000.0001) %MON dynstat_salt_max             =   3.4692815535616E+01
(PID.TID 0000.0001) %MON dynstat_salt_min             =   3.3812030098049E+01
(PID.TID 0000.0001) %MON dynstat_salt_mean            =   3.4431630922678E+01
(PID.TID 0000.0001) %MON dynstat_salt_sd              =   1.8350167600438E-01
(PID.TID 0000.0001) %MON dynstat_salt_del2            =   1.5961063500197E-05
(PID.TID 0000.0001) %MON advcfl_uvel_max              =   5.3469115940547E-13
(PID.TID 0000.0001) %MON advcfl_vvel_max              =   6.8637932477305E-02
(PID.TID 0000.0001) %MON advcfl_wvel_max              =   3.7156027580255E-01
(PID.TID 0000.0001) %MON advcfl_W_hf_max              =   3.7156027580255E-01
(PID.TID 0000.0001) %MON pe_b_mean                    =  -2.8117419425035E-01
(PID.TID 0000.0001) %MON ke_max                       =   1.9732182795937E-02
(PID.TID 0000.0001) %MON ke_mean                      =   1.3473413892570E-03
(PID.TID 0000.0001) %MON ke_vol                       =   1.3174253134491E+12
(PID.TID 0000.0001) // =======================================================
(PID.TID 0000.0001) // End MONITOR dynamic field statistics
(PID.TID 0000.0001) // =======================================================
(PID.TID 0000.0001) // =======================================================
(PID.TID 0000.0001) // Begin OBCS MONITOR field statistics
(PID.TID 0000.0001) // =======================================================
(PID.TID 0000.0001) %MON obc_N_vVel_max               =   2.5000000000000E-02
(PID.TID 0000.0001) %MON obc_N_vVel_min               =  -2.5000000000000E-02
(PID.TID 0000.0001) %MON obc_N_vVel_mean              =   1.0701309254946E-18
(PID.TID 0000.0001) %MON obc_N_vVel_sd                =   1.4595032760272E-02
(PID.TID 0000.0001) %MON obc_N_vVel_Int               =   1.1141310096718E-11
(PID.TID 0000.0001) // =======================================================
(PID.TID 0000.0001) // End OBCS MONITOR field statistics
(PID.TID 0000.0001) // =======================================================
 Computing Diagnostic #    209  SHIfwFlx     Counter:       1   Parms: SM      L1      
 Computing Diagnostic #    210  SHIhtFlx     Counter:       1   Parms: SM      L1      
 Computing Diagnostic #    215  SHIgammT     Counter:       1   Parms: SM      L1      
 Computing Diagnostic #    216  SHIgammS     Counter:       1   Parms: SM      L1      
 Computing Diagnostic #    218  SHI_mass     Counter:       1   Parms: SM      L1      
 Computing Diagnostic #    219  SHIRshel     Counter:       1   Parms: SM      L1      
 Computing Diagnostic #    194  SI_Uvel      Counter:       1   Parms: UZ      L1      
 Computing Diagnostic #    195  SI_Vvel      Counter:       1   Parms: VZ      L1      
 Computing Diagnostic #    196  SI_Thick     Counter:       1   Parms: SM      L1      
 Computing Diagnostic #    199  SI_hmask     Counter:       1   Parms: SM      L1      
 Computing Diagnostic #    198  SI_float     Counter:       1   Parms: SM      L1      
 Computing Diagnostic #    217  SHIuStar     Counter:       1   Parms: SM      L1      
(PID.TID 0000.0001) streamice solo_time_step: nIter0000011408 0.11E+00seconds
 time_step_loc    9.5129375951293768E-006
(PID.TID 0000.0001) END STREAMICE_ADVECT_THICKNESS
 cg2d: Sum(rhs),rhsMax =   1.23298955709506E-01  5.71278525455602E+01
(PID.TID 0000.0001)      cg2d_init_res =   6.79239778429335E-05
(PID.TID 0000.0001)      cg2d_iters(min,last) =      -1     115
(PID.TID 0000.0001)      cg2d_last_res =   5.51781967981951E-12
(PID.TID 0000.0001) CALLING FILL DIAGNOSTICS
(PID.TID 0000.0001) // =======================================================
(PID.TID 0000.0001) // Begin MONITOR dynamic field statistics
(PID.TID 0000.0001) // =======================================================
(PID.TID 0000.0001) %MON time_tsnumber                =                 11409
(PID.TID 0000.0001) %MON time_secondsf                =   3.4227000000000E+06
(PID.TID 0000.0001) %MON dynstat_eta_max              =   2.4722234947620E+00
(PID.TID 0000.0001) %MON dynstat_eta_min              =  -7.4973953237988E+00
(PID.TID 0000.0001) %MON dynstat_eta_mean             =  -1.3351505553323E+00
(PID.TID 0000.0001) %MON dynstat_eta_sd               =   2.4331308766213E+00
(PID.TID 0000.0001) %MON dynstat_eta_del2             =   1.8281059261086E-01
(PID.TID 0000.0001) %MON dynstat_uvel_max             =   6.7451015321169E-12
(PID.TID 0000.0001) %MON dynstat_uvel_min             =  -6.7930899796507E-12
(PID.TID 0000.0001) %MON dynstat_uvel_mean            =  -9.0458627512506E-26
(PID.TID 0000.0001) %MON dynstat_uvel_sd              =   9.4541754509657E-13
(PID.TID 0000.0001) %MON dynstat_uvel_del2            =   2.3057959361875E-14
(PID.TID 0000.0001) %MON dynstat_vvel_max             =   1.9872734326730E-01
(PID.TID 0000.0001) %MON dynstat_vvel_min             =  -1.1042636931332E-01
(PID.TID 0000.0001) %MON dynstat_vvel_mean            =   5.5452823156257E-07
(PID.TID 0000.0001) %MON dynstat_vvel_sd              =   5.1913306643413E-02
(PID.TID 0000.0001) %MON dynstat_vvel_del2            =   1.5251906404063E-05
(PID.TID 0000.0001) %MON dynstat_wvel_max             =   1.2385077115235E-02
(PID.TID 0000.0001) %MON dynstat_wvel_min             =  -7.7887277786763E-03
(PID.TID 0000.0001) %MON dynstat_wvel_mean            =   3.0019905788909E-05
(PID.TID 0000.0001) %MON dynstat_wvel_sd              =   6.8054586765660E-04
(PID.TID 0000.0001) %MON dynstat_wvel_del2            =   3.9309810292042E-06
(PID.TID 0000.0001) %MON dynstat_theta_max            =   1.9439618995500E+00
(PID.TID 0000.0001) %MON dynstat_theta_min            =  -1.8514673525932E+00
(PID.TID 0000.0001) %MON dynstat_theta_mean           =   2.2580087182638E-02
(PID.TID 0000.0001) %MON dynstat_theta_sd             =   1.2764283757147E+00
(PID.TID 0000.0001) %MON dynstat_theta_del2           =   5.7761961669830E-05
(PID.TID 0000.0001) %MON dynstat_salt_max             =   3.4692815628147E+01
(PID.TID 0000.0001) %MON dynstat_salt_min             =   3.3812024065957E+01
(PID.TID 0000.0001) %MON dynstat_salt_mean            =   3.4431631620446E+01
(PID.TID 0000.0001) %MON dynstat_salt_sd              =   1.8350234438525E-01
(PID.TID 0000.0001) %MON dynstat_salt_del2            =   1.5953677781066E-05
(PID.TID 0000.0001) %MON advcfl_uvel_max              =   5.3726698931210E-13
(PID.TID 0000.0001) %MON advcfl_vvel_max              =   6.8639174388327E-02
(PID.TID 0000.0001) %MON advcfl_wvel_max              =   3.7155231345706E-01
(PID.TID 0000.0001) %MON advcfl_W_hf_max              =   3.7155231345706E-01
(PID.TID 0000.0001) %MON pe_b_mean                    =  -2.8115698163182E-01
(PID.TID 0000.0001) %MON ke_max                       =   1.9732944337594E-02
(PID.TID 0000.0001) %MON ke_mean                      =   1.3474619926299E-03
(PID.TID 0000.0001) %MON ke_vol                       =   1.3174254722297E+12
(PID.TID 0000.0001) // =======================================================
(PID.TID 0000.0001) // End MONITOR dynamic field statistics
(PID.TID 0000.0001) // =======================================================
(PID.TID 0000.0001) // =======================================================
(PID.TID 0000.0001) // Begin OBCS MONITOR field statistics
(PID.TID 0000.0001) // =======================================================
(PID.TID 0000.0001) %MON obc_N_vVel_max               =   2.5000000000000E-02
(PID.TID 0000.0001) %MON obc_N_vVel_min               =  -2.5000000000000E-02
(PID.TID 0000.0001) %MON obc_N_vVel_mean              =   1.0701309254946E-18
(PID.TID 0000.0001) %MON obc_N_vVel_sd                =   1.4595032760272E-02
(PID.TID 0000.0001) %MON obc_N_vVel_Int               =   1.1141310096718E-11
(PID.TID 0000.0001) // =======================================================
(PID.TID 0000.0001) // End OBCS MONITOR field statistics
(PID.TID 0000.0001) // =======================================================
 Computing Diagnostic #    209  SHIfwFlx     Counter:       1   Parms: SM      L1      
 Computing Diagnostic #    210  SHIhtFlx     Counter:       1   Parms: SM      L1      
 Computing Diagnostic #    215  SHIgammT     Counter:       1   Parms: SM      L1      
 Computing Diagnostic #    216  SHIgammS     Counter:       1   Parms: SM      L1      
 Computing Diagnostic #    218  SHI_mass     Counter:       1   Parms: SM      L1      
 Computing Diagnostic #    219  SHIRshel     Counter:       1   Parms: SM      L1      
 Computing Diagnostic #    194  SI_Uvel      Counter:       1   Parms: UZ      L1      
 Computing Diagnostic #    195  SI_Vvel      Counter:       1   Parms: VZ      L1      
 Computing Diagnostic #    196  SI_Thick     Counter:       1   Parms: SM      L1      
 Computing Diagnostic #    199  SI_hmask     Counter:       1   Parms: SM      L1      
 Computing Diagnostic #    198  SI_float     Counter:       1   Parms: SM      L1      
 Computing Diagnostic #    217  SHIuStar     Counter:       1   Parms: SM      L1      
(PID.TID 0000.0001) streamice solo_time_step: nIter0000011409 0.11E+00seconds
 time_step_loc    9.5129375951293768E-006
(PID.TID 0000.0001) END STREAMICE_ADVECT_THICKNESS
 cg2d: Sum(rhs),rhsMax =   1.23291492783086E-01  5.71277268855133E+01
(PID.TID 0000.0001)      cg2d_init_res =   6.79336188206655E-05
(PID.TID 0000.0001)      cg2d_iters(min,last) =      -1     115
(PID.TID 0000.0001)      cg2d_last_res =   5.51632722852076E-12
(PID.TID 0000.0001) CALLING FILL DIAGNOSTICS
(PID.TID 0000.0001) // =======================================================
(PID.TID 0000.0001) // Begin MONITOR dynamic field statistics
(PID.TID 0000.0001) // =======================================================
(PID.TID 0000.0001) %MON time_tsnumber                =                 11410
(PID.TID 0000.0001) %MON time_secondsf                =   3.4230000000000E+06
(PID.TID 0000.0001) %MON dynstat_eta_max              =   2.4724097147338E+00
(PID.TID 0000.0001) %MON dynstat_eta_min              =  -7.4972151104891E+00
(PID.TID 0000.0001) %MON dynstat_eta_mean             =  -1.3350668059033E+00
(PID.TID 0000.0001) %MON dynstat_eta_sd               =   2.4330793703421E+00
(PID.TID 0000.0001) %MON dynstat_eta_del2             =   1.8281055379272E-01
(PID.TID 0000.0001) %MON dynstat_uvel_max             =   6.7567098246969E-12
(PID.TID 0000.0001) %MON dynstat_uvel_min             =  -6.7637894887426E-12
(PID.TID 0000.0001) %MON dynstat_uvel_mean            =  -9.1325307853926E-26
(PID.TID 0000.0001) %MON dynstat_uvel_sd              =   9.4513043785682E-13
(PID.TID 0000.0001) %MON dynstat_uvel_del2            =   2.3050721221028E-14
(PID.TID 0000.0001) %MON dynstat_vvel_max             =   1.9873106758256E-01
(PID.TID 0000.0001) %MON dynstat_vvel_min             =  -1.1042395023819E-01
(PID.TID 0000.0001) %MON dynstat_vvel_mean            =   5.0473046735401E-07
(PID.TID 0000.0001) %MON dynstat_vvel_sd              =   5.1915624774146E-02
(PID.TID 0000.0001) %MON dynstat_vvel_del2            =   1.5253474061739E-05
(PID.TID 0000.0001) %MON dynstat_wvel_max             =   1.2384821914332E-02
(PID.TID 0000.0001) %MON dynstat_wvel_min             =  -7.7899847136064E-03
(PID.TID 0000.0001) %MON dynstat_wvel_mean            =   3.0019705879349E-05
(PID.TID 0000.0001) %MON dynstat_wvel_sd              =   6.8056810169920E-04
(PID.TID 0000.0001) %MON dynstat_wvel_del2            =   3.9312295851937E-06
(PID.TID 0000.0001) %MON dynstat_theta_max            =   1.9439626212297E+00
(PID.TID 0000.0001) %MON dynstat_theta_min            =  -1.8514597312152E+00
(PID.TID 0000.0001) %MON dynstat_theta_mean           =   2.2591577380702E-02
(PID.TID 0000.0001) %MON dynstat_theta_sd             =   1.2764253784897E+00
(PID.TID 0000.0001) %MON dynstat_theta_del2           =   5.7755449563462E-05
(PID.TID 0000.0001) %MON dynstat_salt_max             =   3.4692815720671E+01
(PID.TID 0000.0001) %MON dynstat_salt_min             =   3.3812018111253E+01
(PID.TID 0000.0001) %MON dynstat_salt_mean            =   3.4431632317360E+01
(PID.TID 0000.0001) %MON dynstat_salt_sd              =   1.8350301456707E-01
(PID.TID 0000.0001) %MON dynstat_salt_del2            =   1.5947749625758E-05
(PID.TID 0000.0001) %MON advcfl_uvel_max              =   5.3519174563057E-13
(PID.TID 0000.0001) %MON advcfl_vvel_max              =   6.8640460743393E-02
(PID.TID 0000.0001) %MON advcfl_wvel_max              =   3.7154465742997E-01
(PID.TID 0000.0001) %MON advcfl_W_hf_max              =   3.7154465742997E-01
(PID.TID 0000.0001) %MON pe_b_mean                    =  -2.8113975069827E-01
(PID.TID 0000.0001) %MON ke_max                       =   1.9733729566590E-02
(PID.TID 0000.0001) %MON ke_mean                      =   1.3475823667771E-03
(PID.TID 0000.0001) %MON ke_vol                       =   1.3174256310232E+12
(PID.TID 0000.0001) // =======================================================
(PID.TID 0000.0001) // End MONITOR dynamic field statistics
(PID.TID 0000.0001) // =======================================================
(PID.TID 0000.0001) // =======================================================
(PID.TID 0000.0001) // Begin OBCS MONITOR field statistics
(PID.TID 0000.0001) // =======================================================
(PID.TID 0000.0001) %MON obc_N_vVel_max               =   2.5000000000000E-02
(PID.TID 0000.0001) %MON obc_N_vVel_min               =  -2.5000000000000E-02
(PID.TID 0000.0001) %MON obc_N_vVel_mean              =   1.0701309254946E-18
(PID.TID 0000.0001) %MON obc_N_vVel_sd                =   1.4595032760272E-02
(PID.TID 0000.0001) %MON obc_N_vVel_Int               =   1.1141310096718E-11
(PID.TID 0000.0001) // =======================================================
(PID.TID 0000.0001) // End OBCS MONITOR field statistics
(PID.TID 0000.0001) // =======================================================
 Computing Diagnostic #    209  SHIfwFlx     Counter:       1   Parms: SM      L1      
 Computing Diagnostic #    210  SHIhtFlx     Counter:       1   Parms: SM      L1      
 Computing Diagnostic #    215  SHIgammT     Counter:       1   Parms: SM      L1      
 Computing Diagnostic #    216  SHIgammS     Counter:       1   Parms: SM      L1      
 Computing Diagnostic #    218  SHI_mass     Counter:       1   Parms: SM      L1      
 Computing Diagnostic #    219  SHIRshel     Counter:       1   Parms: SM      L1      
 Computing Diagnostic #    194  SI_Uvel      Counter:       1   Parms: UZ      L1      
 Computing Diagnostic #    195  SI_Vvel      Counter:       1   Parms: VZ      L1      
 Computing Diagnostic #    196  SI_Thick     Counter:       1   Parms: SM      L1      
 Computing Diagnostic #    199  SI_hmask     Counter:       1   Parms: SM      L1      
 Computing Diagnostic #    198  SI_float     Counter:       1   Parms: SM      L1      
 Computing Diagnostic #    217  SHIuStar     Counter:       1   Parms: SM      L1      
(PID.TID 0000.0001) streamice solo_time_step: nIter0000011410 0.11E+00seconds
 time_step_loc    9.5129375951293768E-006
(PID.TID 0000.0001) END STREAMICE_ADVECT_THICKNESS
 cg2d: Sum(rhs),rhsMax =   1.23284029188745E-01  5.71276012379403E+01
(PID.TID 0000.0001)      cg2d_init_res =   6.79407379372710E-05
(PID.TID 0000.0001)      cg2d_iters(min,last) =      -1     115
(PID.TID 0000.0001)      cg2d_last_res =   5.51551767119866E-12
(PID.TID 0000.0001) CALLING FILL DIAGNOSTICS
(PID.TID 0000.0001) // =======================================================
(PID.TID 0000.0001) // Begin MONITOR dynamic field statistics
(PID.TID 0000.0001) // =======================================================
(PID.TID 0000.0001) %MON time_tsnumber                =                 11411
(PID.TID 0000.0001) %MON time_secondsf                =   3.4233000000000E+06
(PID.TID 0000.0001) %MON dynstat_eta_max              =   2.4725961071884E+00
(PID.TID 0000.0001) %MON dynstat_eta_min              =  -7.4970341524681E+00
(PID.TID 0000.0001) %MON dynstat_eta_mean             =  -1.3349830498888E+00
(PID.TID 0000.0001) %MON dynstat_eta_sd               =   2.4330277912336E+00
(PID.TID 0000.0001) %MON dynstat_eta_del2             =   1.8281051461656E-01
(PID.TID 0000.0001) %MON dynstat_uvel_max             =   6.7456751035138E-12
(PID.TID 0000.0001) %MON dynstat_uvel_min             =  -6.7748310870102E-12
(PID.TID 0000.0001) %MON dynstat_uvel_mean            =  -9.1002532431484E-26
(PID.TID 0000.0001) %MON dynstat_uvel_sd              =   9.4506249114084E-13
(PID.TID 0000.0001) %MON dynstat_uvel_del2            =   2.3049152638533E-14
(PID.TID 0000.0001) %MON dynstat_vvel_max             =   1.9873493024787E-01
(PID.TID 0000.0001) %MON dynstat_vvel_min             =  -1.1042150235644E-01
(PID.TID 0000.0001) %MON dynstat_vvel_mean            =   4.7460697983121E-07
(PID.TID 0000.0001) %MON dynstat_vvel_sd              =   5.1917937576746E-02
(PID.TID 0000.0001) %MON dynstat_vvel_del2            =   1.5254780869097E-05
(PID.TID 0000.0001) %MON dynstat_wvel_max             =   1.2384577492755E-02
(PID.TID 0000.0001) %MON dynstat_wvel_min             =  -7.7912423005480E-03
(PID.TID 0000.0001) %MON dynstat_wvel_mean            =   3.0019582534921E-05
(PID.TID 0000.0001) %MON dynstat_wvel_sd              =   6.8059077575161E-04
(PID.TID 0000.0001) %MON dynstat_wvel_del2            =   3.9314838046334E-06
(PID.TID 0000.0001) %MON dynstat_theta_max            =   1.9439633428315E+00
(PID.TID 0000.0001) %MON dynstat_theta_min            =  -1.8514520974631E+00
(PID.TID 0000.0001) %MON dynstat_theta_mean           =   2.2603059158862E-02
(PID.TID 0000.0001) %MON dynstat_theta_sd             =   1.2764223855510E+00
(PID.TID 0000.0001) %MON dynstat_theta_del2           =   5.7750819695765E-05
(PID.TID 0000.0001) %MON dynstat_salt_max             =   3.4692815813184E+01
(PID.TID 0000.0001) %MON dynstat_salt_min             =   3.3812012232715E+01
(PID.TID 0000.0001) %MON dynstat_salt_mean            =   3.4431633013428E+01
(PID.TID 0000.0001) %MON dynstat_salt_sd              =   1.8350368642046E-01
(PID.TID 0000.0001) %MON dynstat_salt_del2            =   1.5942960842551E-05
(PID.TID 0000.0001) %MON advcfl_uvel_max              =   5.3582288945379E-13
(PID.TID 0000.0001) %MON advcfl_vvel_max              =   6.8641794883697E-02
(PID.TID 0000.0001) %MON advcfl_wvel_max              =   3.7153732478266E-01
(PID.TID 0000.0001) %MON advcfl_W_hf_max              =   3.7153732478266E-01
(PID.TID 0000.0001) %MON pe_b_mean                    =  -2.8112250804917E-01
(PID.TID 0000.0001) %MON ke_max                       =   1.9734540350356E-02
(PID.TID 0000.0001) %MON ke_mean                      =   1.3477024696175E-03
(PID.TID 0000.0001) %MON ke_vol                       =   1.3174257898295E+12
(PID.TID 0000.0001) // =======================================================
(PID.TID 0000.0001) // End MONITOR dynamic field statistics
(PID.TID 0000.0001) // =======================================================
(PID.TID 0000.0001) // =======================================================
(PID.TID 0000.0001) // Begin OBCS MONITOR field statistics
(PID.TID 0000.0001) // =======================================================
(PID.TID 0000.0001) %MON obc_N_vVel_max               =   2.5000000000000E-02
(PID.TID 0000.0001) %MON obc_N_vVel_min               =  -2.5000000000000E-02
(PID.TID 0000.0001) %MON obc_N_vVel_mean              =   1.0701309254946E-18
(PID.TID 0000.0001) %MON obc_N_vVel_sd                =   1.4595032760272E-02
(PID.TID 0000.0001) %MON obc_N_vVel_Int               =   1.1141310096718E-11
(PID.TID 0000.0001) // =======================================================
(PID.TID 0000.0001) // End OBCS MONITOR field statistics
(PID.TID 0000.0001) // =======================================================
 Computing Diagnostic #    209  SHIfwFlx     Counter:       1   Parms: SM      L1      
 Computing Diagnostic #    210  SHIhtFlx     Counter:       1   Parms: SM      L1      
 Computing Diagnostic #    215  SHIgammT     Counter:       1   Parms: SM      L1      
 Computing Diagnostic #    216  SHIgammS     Counter:       1   Parms: SM      L1      
 Computing Diagnostic #    218  SHI_mass     Counter:       1   Parms: SM      L1      
 Computing Diagnostic #    219  SHIRshel     Counter:       1   Parms: SM      L1      
 Computing Diagnostic #    194  SI_Uvel      Counter:       1   Parms: UZ      L1      
 Computing Diagnostic #    195  SI_Vvel      Counter:       1   Parms: VZ      L1      
 Computing Diagnostic #    196  SI_Thick     Counter:       1   Parms: SM      L1      
 Computing Diagnostic #    199  SI_hmask     Counter:       1   Parms: SM      L1      
 Computing Diagnostic #    198  SI_float     Counter:       1   Parms: SM      L1      
 Computing Diagnostic #    217  SHIuStar     Counter:       1   Parms: SM      L1      
(PID.TID 0000.0001) streamice solo_time_step: nIter0000011411 0.11E+00seconds
 time_step_loc    9.5129375951293768E-006
(PID.TID 0000.0001) END STREAMICE_ADVECT_THICKNESS
 cg2d: Sum(rhs),rhsMax =   1.23276564954465E-01  5.71274755974149E+01
(PID.TID 0000.0001)      cg2d_init_res =   6.79455110609040E-05
(PID.TID 0000.0001)      cg2d_iters(min,last) =      -1     115
(PID.TID 0000.0001)      cg2d_last_res =   5.51535772453905E-12
(PID.TID 0000.0001) CALLING FILL DIAGNOSTICS
(PID.TID 0000.0001) // =======================================================
(PID.TID 0000.0001) // Begin MONITOR dynamic field statistics
(PID.TID 0000.0001) // =======================================================
(PID.TID 0000.0001) %MON time_tsnumber                =                 11412
(PID.TID 0000.0001) %MON time_secondsf                =   3.4236000000000E+06
(PID.TID 0000.0001) %MON dynstat_eta_max              =   2.4727825663386E+00
(PID.TID 0000.0001) %MON dynstat_eta_min              =  -7.4968525696057E+00
(PID.TID 0000.0001) %MON dynstat_eta_mean             =  -1.3348992874648E+00
(PID.TID 0000.0001) %MON dynstat_eta_sd               =   2.4329761854902E+00
(PID.TID 0000.0001) %MON dynstat_eta_del2             =   1.8281047523634E-01
(PID.TID 0000.0001) %MON dynstat_uvel_max             =   6.7638327008075E-12
(PID.TID 0000.0001) %MON dynstat_uvel_min             =  -6.7604185081882E-12
(PID.TID 0000.0001) %MON dynstat_uvel_mean            =  -9.2058039772724E-26
(PID.TID 0000.0001) %MON dynstat_uvel_sd              =   9.4518849110691E-13
(PID.TID 0000.0001) %MON dynstat_uvel_del2            =   2.3051982154968E-14
(PID.TID 0000.0001) %MON dynstat_vvel_max             =   1.9873893313099E-01
(PID.TID 0000.0001) %MON dynstat_vvel_min             =  -1.1041902510874E-01
(PID.TID 0000.0001) %MON dynstat_vvel_mean            =   4.6513393327612E-07
(PID.TID 0000.0001) %MON dynstat_vvel_sd              =   5.1920244479010E-02
(PID.TID 0000.0001) %MON dynstat_vvel_del2            =   1.5255868368938E-05
(PID.TID 0000.0001) %MON dynstat_wvel_max             =   1.2384342840226E-02
(PID.TID 0000.0001) %MON dynstat_wvel_min             =  -7.7925006022016E-03
(PID.TID 0000.0001) %MON dynstat_wvel_mean            =   3.0019541775605E-05
(PID.TID 0000.0001) %MON dynstat_wvel_sd              =   6.8061386311663E-04
(PID.TID 0000.0001) %MON dynstat_wvel_del2            =   3.9317428446419E-06
(PID.TID 0000.0001) %MON dynstat_theta_max            =   1.9439640643468E+00
(PID.TID 0000.0001) %MON dynstat_theta_min            =  -1.8514444513138E+00
(PID.TID 0000.0001) %MON dynstat_theta_mean           =   2.2614532545124E-02
(PID.TID 0000.0001) %MON dynstat_theta_sd             =   1.2764193967935E+00
(PID.TID 0000.0001) %MON dynstat_theta_del2           =   5.7747675398495E-05
(PID.TID 0000.0001) %MON dynstat_salt_max             =   3.4692815905686E+01
(PID.TID 0000.0001) %MON dynstat_salt_min             =   3.3812006429193E+01
(PID.TID 0000.0001) %MON dynstat_salt_mean            =   3.4431633708660E+01
(PID.TID 0000.0001) %MON dynstat_salt_sd              =   1.8350435981993E-01
(PID.TID 0000.0001) %MON dynstat_salt_del2            =   1.5939070795655E-05
(PID.TID 0000.0001) %MON advcfl_uvel_max              =   5.3443934059699E-13
(PID.TID 0000.0001) %MON advcfl_vvel_max              =   6.8643177454346E-02
(PID.TID 0000.0001) %MON advcfl_wvel_max              =   3.7153028520679E-01
(PID.TID 0000.0001) %MON advcfl_W_hf_max              =   3.7153028520679E-01
(PID.TID 0000.0001) %MON pe_b_mean                    =  -2.8110526080777E-01
(PID.TID 0000.0001) %MON ke_max                       =   1.9735377026301E-02
(PID.TID 0000.0001) %MON ke_mean                      =   1.3478222713966E-03
(PID.TID 0000.0001) %MON ke_vol                       =   1.3174259486482E+12
(PID.TID 0000.0001) // =======================================================
(PID.TID 0000.0001) // End MONITOR dynamic field statistics
(PID.TID 0000.0001) // =======================================================
(PID.TID 0000.0001) // =======================================================
(PID.TID 0000.0001) // Begin OBCS MONITOR field statistics
(PID.TID 0000.0001) // =======================================================
(PID.TID 0000.0001) %MON obc_N_vVel_max               =   2.5000000000000E-02
(PID.TID 0000.0001) %MON obc_N_vVel_min               =  -2.5000000000000E-02
(PID.TID 0000.0001) %MON obc_N_vVel_mean              =   1.0701309254946E-18
(PID.TID 0000.0001) %MON obc_N_vVel_sd                =   1.4595032760272E-02
(PID.TID 0000.0001) %MON obc_N_vVel_Int               =   1.1141310096718E-11
(PID.TID 0000.0001) // =======================================================
(PID.TID 0000.0001) // End OBCS MONITOR field statistics
(PID.TID 0000.0001) // =======================================================
 Computing Diagnostic #    209  SHIfwFlx     Counter:       1   Parms: SM      L1      
 Computing Diagnostic #    210  SHIhtFlx     Counter:       1   Parms: SM      L1      
 Computing Diagnostic #    215  SHIgammT     Counter:       1   Parms: SM      L1      
 Computing Diagnostic #    216  SHIgammS     Counter:       1   Parms: SM      L1      
 Computing Diagnostic #    218  SHI_mass     Counter:       1   Parms: SM      L1      
 Computing Diagnostic #    219  SHIRshel     Counter:       1   Parms: SM      L1      
 Computing Diagnostic #    194  SI_Uvel      Counter:       1   Parms: UZ      L1      
 Computing Diagnostic #    195  SI_Vvel      Counter:       1   Parms: VZ      L1      
 Computing Diagnostic #    196  SI_Thick     Counter:       1   Parms: SM      L1      
 Computing Diagnostic #    199  SI_hmask     Counter:       1   Parms: SM      L1      
 Computing Diagnostic #    198  SI_float     Counter:       1   Parms: SM      L1      
 Computing Diagnostic #    217  SHIuStar     Counter:       1   Parms: SM      L1      
(PID.TID 0000.0001) streamice solo_time_step: nIter0000011412 0.11E+00seconds
 time_step_loc    9.5129375951293768E-006
(PID.TID 0000.0001) END STREAMICE_ADVECT_THICKNESS
 cg2d: Sum(rhs),rhsMax =   1.23269100103862E-01  5.71273499617798E+01
(PID.TID 0000.0001)      cg2d_init_res =   6.79482415657103E-05
(PID.TID 0000.0001)      cg2d_iters(min,last) =      -1     115
(PID.TID 0000.0001)      cg2d_last_res =   5.51578297563932E-12
(PID.TID 0000.0001) CALLING FILL DIAGNOSTICS
(PID.TID 0000.0001) // =======================================================
(PID.TID 0000.0001) // Begin MONITOR dynamic field statistics
(PID.TID 0000.0001) // =======================================================
(PID.TID 0000.0001) %MON time_tsnumber                =                 11413
(PID.TID 0000.0001) %MON time_secondsf                =   3.4239000000000E+06
(PID.TID 0000.0001) %MON dynstat_eta_max              =   2.4729689743651E+00
(PID.TID 0000.0001) %MON dynstat_eta_min              =  -7.4966704565485E+00
(PID.TID 0000.0001) %MON dynstat_eta_mean             =  -1.3348155188368E+00
(PID.TID 0000.0001) %MON dynstat_eta_sd               =   2.4329245922968E+00
(PID.TID 0000.0001) %MON dynstat_eta_del2             =   1.8281043578543E-01
(PID.TID 0000.0001) %MON dynstat_uvel_max             =   6.7482828305670E-12
(PID.TID 0000.0001) %MON dynstat_uvel_min             =  -6.7557121393939E-12
(PID.TID 0000.0001) %MON dynstat_uvel_mean            =  -9.0868069337689E-26
(PID.TID 0000.0001) %MON dynstat_uvel_sd              =   9.4522935663710E-13
(PID.TID 0000.0001) %MON dynstat_uvel_del2            =   2.3053138802778E-14
(PID.TID 0000.0001) %MON dynstat_vvel_max             =   1.9874307093690E-01
(PID.TID 0000.0001) %MON dynstat_vvel_min             =  -1.1041652250660E-01
(PID.TID 0000.0001) %MON dynstat_vvel_mean            =   4.7380058890631E-07
(PID.TID 0000.0001) %MON dynstat_vvel_sd              =   5.1922545064163E-02
(PID.TID 0000.0001) %MON dynstat_vvel_del2            =   1.5256782321222E-05
(PID.TID 0000.0001) %MON dynstat_wvel_max             =   1.2384115910300E-02
(PID.TID 0000.0001) %MON dynstat_wvel_min             =  -7.7937597314450E-03
(PID.TID 0000.0001) %MON dynstat_wvel_mean            =   3.0019575076019E-05
(PID.TID 0000.0001) %MON dynstat_wvel_sd              =   6.8063729347633E-04
(PID.TID 0000.0001) %MON dynstat_wvel_del2            =   3.9320054284030E-06
(PID.TID 0000.0001) %MON dynstat_theta_max            =   1.9439647857668E+00
(PID.TID 0000.0001) %MON dynstat_theta_min            =  -1.8514367927325E+00
(PID.TID 0000.0001) %MON dynstat_theta_mean           =   2.2625997565799E-02
(PID.TID 0000.0001) %MON dynstat_theta_sd             =   1.2764164121235E+00
(PID.TID 0000.0001) %MON dynstat_theta_del2           =   5.7745712756862E-05
(PID.TID 0000.0001) %MON dynstat_salt_max             =   3.4692815998175E+01
(PID.TID 0000.0001) %MON dynstat_salt_min             =   3.3812000699669E+01
(PID.TID 0000.0001) %MON dynstat_salt_mean            =   3.4431634403072E+01
(PID.TID 0000.0001) %MON dynstat_salt_sd              =   1.8350503464652E-01
(PID.TID 0000.0001) %MON dynstat_salt_del2            =   1.5935896147335E-05
(PID.TID 0000.0001) %MON advcfl_uvel_max              =   5.3431076765717E-13
(PID.TID 0000.0001) %MON advcfl_vvel_max              =   6.8644606626482E-02
(PID.TID 0000.0001) %MON advcfl_wvel_max              =   3.7152347730900E-01
(PID.TID 0000.0001) %MON advcfl_W_hf_max              =   3.7152347730900E-01
(PID.TID 0000.0001) %MON pe_b_mean                    =  -2.8108801537485E-01
(PID.TID 0000.0001) %MON ke_max                       =   1.9736238522631E-02
(PID.TID 0000.0001) %MON ke_mean                      =   1.3479417504265E-03
(PID.TID 0000.0001) %MON ke_vol                       =   1.3174261074791E+12
(PID.TID 0000.0001) // =======================================================
(PID.TID 0000.0001) // End MONITOR dynamic field statistics
(PID.TID 0000.0001) // =======================================================
(PID.TID 0000.0001) // =======================================================
(PID.TID 0000.0001) // Begin OBCS MONITOR field statistics
(PID.TID 0000.0001) // =======================================================
(PID.TID 0000.0001) %MON obc_N_vVel_max               =   2.5000000000000E-02
(PID.TID 0000.0001) %MON obc_N_vVel_min               =  -2.5000000000000E-02
(PID.TID 0000.0001) %MON obc_N_vVel_mean              =   1.0701309254946E-18
(PID.TID 0000.0001) %MON obc_N_vVel_sd                =   1.4595032760272E-02
(PID.TID 0000.0001) %MON obc_N_vVel_Int               =   1.1141310096718E-11
(PID.TID 0000.0001) // =======================================================
(PID.TID 0000.0001) // End OBCS MONITOR field statistics
(PID.TID 0000.0001) // =======================================================
 Computing Diagnostic #    209  SHIfwFlx     Counter:       1   Parms: SM      L1      
 Computing Diagnostic #    210  SHIhtFlx     Counter:       1   Parms: SM      L1      
 Computing Diagnostic #    215  SHIgammT     Counter:       1   Parms: SM      L1      
 Computing Diagnostic #    216  SHIgammS     Counter:       1   Parms: SM      L1      
 Computing Diagnostic #    218  SHI_mass     Counter:       1   Parms: SM      L1      
 Computing Diagnostic #    219  SHIRshel     Counter:       1   Parms: SM      L1      
 Computing Diagnostic #    194  SI_Uvel      Counter:       1   Parms: UZ      L1      
 Computing Diagnostic #    195  SI_Vvel      Counter:       1   Parms: VZ      L1      
 Computing Diagnostic #    196  SI_Thick     Counter:       1   Parms: SM      L1      
 Computing Diagnostic #    199  SI_hmask     Counter:       1   Parms: SM      L1      
 Computing Diagnostic #    198  SI_float     Counter:       1   Parms: SM      L1      
 Computing Diagnostic #    217  SHIuStar     Counter:       1   Parms: SM      L1      
(PID.TID 0000.0001) streamice solo_time_step: nIter0000011413 0.11E+00seconds
 time_step_loc    9.5129375951293768E-006
(PID.TID 0000.0001) END STREAMICE_ADVECT_THICKNESS
 cg2d: Sum(rhs),rhsMax =   1.23261634657062E-01  5.71272243315697E+01
(PID.TID 0000.0001)      cg2d_init_res =   6.79492174348470E-05
(PID.TID 0000.0001)      cg2d_iters(min,last) =      -1     115
(PID.TID 0000.0001)      cg2d_last_res =   5.51670025887402E-12
(PID.TID 0000.0001) CALLING FILL DIAGNOSTICS
(PID.TID 0000.0001) // =======================================================
(PID.TID 0000.0001) // Begin MONITOR dynamic field statistics
(PID.TID 0000.0001) // =======================================================
(PID.TID 0000.0001) %MON time_tsnumber                =                 11414
(PID.TID 0000.0001) %MON time_secondsf                =   3.4242000000000E+06
(PID.TID 0000.0001) %MON dynstat_eta_max              =   2.4731552273923E+00
(PID.TID 0000.0001) %MON dynstat_eta_min              =  -7.4964878807131E+00
(PID.TID 0000.0001) %MON dynstat_eta_mean             =  -1.3347317442352E+00
(PID.TID 0000.0001) %MON dynstat_eta_sd               =   2.4328730395648E+00
(PID.TID 0000.0001) %MON dynstat_eta_del2             =   1.8281039637644E-01
(PID.TID 0000.0001) %MON dynstat_uvel_max             =   6.7459187424075E-12
(PID.TID 0000.0001) %MON dynstat_uvel_min             =  -6.7595119677333E-12
(PID.TID 0000.0001) %MON dynstat_uvel_mean            =  -9.0849903536939E-26
(PID.TID 0000.0001) %MON dynstat_uvel_sd              =   9.4545911520285E-13
(PID.TID 0000.0001) %MON dynstat_uvel_del2            =   2.3058760262794E-14
(PID.TID 0000.0001) %MON dynstat_vvel_max             =   1.9874733300486E-01
(PID.TID 0000.0001) %MON dynstat_vvel_min             =  -1.1041400123646E-01
(PID.TID 0000.0001) %MON dynstat_vvel_mean            =   4.9580742451092E-07
(PID.TID 0000.0001) %MON dynstat_vvel_sd              =   5.1924839025369E-02
(PID.TID 0000.0001) %MON dynstat_vvel_del2            =   1.5257561232579E-05
(PID.TID 0000.0001) %MON dynstat_wvel_max             =   1.2383894212768E-02
(PID.TID 0000.0001) %MON dynstat_wvel_min             =  -7.7950197976153E-03
(PID.TID 0000.0001) %MON dynstat_wvel_mean            =   3.0019663682174E-05
(PID.TID 0000.0001) %MON dynstat_wvel_sd              =   6.8066097172704E-04
(PID.TID 0000.0001) %MON dynstat_wvel_del2            =   3.9322701039803E-06
(PID.TID 0000.0001) %MON dynstat_theta_max            =   1.9439655070825E+00
(PID.TID 0000.0001) %MON dynstat_theta_min            =  -1.8514291216695E+00
(PID.TID 0000.0001) %MON dynstat_theta_mean           =   2.2637454242925E-02
(PID.TID 0000.0001) %MON dynstat_theta_sd             =   1.2764134314566E+00
(PID.TID 0000.0001) %MON dynstat_theta_del2           =   5.7744696250033E-05
(PID.TID 0000.0001) %MON dynstat_salt_max             =   3.4692816090652E+01
(PID.TID 0000.0001) %MON dynstat_salt_min             =   3.3811995043193E+01
(PID.TID 0000.0001) %MON dynstat_salt_mean            =   3.4431635096676E+01
(PID.TID 0000.0001) %MON dynstat_salt_sd              =   1.8350571078933E-01
(PID.TID 0000.0001) %MON dynstat_salt_del2            =   1.5933295794106E-05
(PID.TID 0000.0001) %MON advcfl_uvel_max              =   5.3435449069923E-13
(PID.TID 0000.0001) %MON advcfl_vvel_max              =   6.8646078717947E-02
(PID.TID 0000.0001) %MON advcfl_wvel_max              =   3.7151682638303E-01
(PID.TID 0000.0001) %MON advcfl_W_hf_max              =   3.7151682638303E-01
(PID.TID 0000.0001) %MON pe_b_mean                    =  -2.8107077655162E-01
(PID.TID 0000.0001) %MON ke_max                       =   1.9737122703035E-02
(PID.TID 0000.0001) %MON ke_mean                      =   1.3480608907252E-03
(PID.TID 0000.0001) %MON ke_vol                       =   1.3174262663218E+12
(PID.TID 0000.0001) // =======================================================
(PID.TID 0000.0001) // End MONITOR dynamic field statistics
(PID.TID 0000.0001) // =======================================================
(PID.TID 0000.0001) // =======================================================
(PID.TID 0000.0001) // Begin OBCS MONITOR field statistics
(PID.TID 0000.0001) // =======================================================
(PID.TID 0000.0001) %MON obc_N_vVel_max               =   2.5000000000000E-02
(PID.TID 0000.0001) %MON obc_N_vVel_min               =  -2.5000000000000E-02
(PID.TID 0000.0001) %MON obc_N_vVel_mean              =   1.0701309254946E-18
(PID.TID 0000.0001) %MON obc_N_vVel_sd                =   1.4595032760272E-02
(PID.TID 0000.0001) %MON obc_N_vVel_Int               =   1.1141310096718E-11
(PID.TID 0000.0001) // =======================================================
(PID.TID 0000.0001) // End OBCS MONITOR field statistics
(PID.TID 0000.0001) // =======================================================
 Computing Diagnostic #    209  SHIfwFlx     Counter:       1   Parms: SM      L1      
 Computing Diagnostic #    210  SHIhtFlx     Counter:       1   Parms: SM      L1      
 Computing Diagnostic #    215  SHIgammT     Counter:       1   Parms: SM      L1      
 Computing Diagnostic #    216  SHIgammS     Counter:       1   Parms: SM      L1      
 Computing Diagnostic #    218  SHI_mass     Counter:       1   Parms: SM      L1      
 Computing Diagnostic #    219  SHIRshel     Counter:       1   Parms: SM      L1      
 Computing Diagnostic #    194  SI_Uvel      Counter:       1   Parms: UZ      L1      
 Computing Diagnostic #    195  SI_Vvel      Counter:       1   Parms: VZ      L1      
 Computing Diagnostic #    196  SI_Thick     Counter:       1   Parms: SM      L1      
 Computing Diagnostic #    199  SI_hmask     Counter:       1   Parms: SM      L1      
 Computing Diagnostic #    198  SI_float     Counter:       1   Parms: SM      L1      
 Computing Diagnostic #    217  SHIuStar     Counter:       1   Parms: SM      L1      
(PID.TID 0000.0001) streamice solo_time_step: nIter0000011414 0.11E+00seconds
 time_step_loc    9.5129375951293768E-006
(PID.TID 0000.0001) END STREAMICE_ADVECT_THICKNESS
 cg2d: Sum(rhs),rhsMax =   1.23254168632122E-01  5.71270987092403E+01
(PID.TID 0000.0001)      cg2d_init_res =   6.79487307941592E-05
(PID.TID 0000.0001)      cg2d_iters(min,last) =      -1     115
(PID.TID 0000.0001)      cg2d_last_res =   5.51799651550435E-12
(PID.TID 0000.0001) CALLING FILL DIAGNOSTICS
(PID.TID 0000.0001) // =======================================================
(PID.TID 0000.0001) // Begin MONITOR dynamic field statistics
(PID.TID 0000.0001) // =======================================================
(PID.TID 0000.0001) %MON time_tsnumber                =                 11415
(PID.TID 0000.0001) %MON time_secondsf                =   3.4245000000000E+06
(PID.TID 0000.0001) %MON dynstat_eta_max              =   2.4733412572563E+00
(PID.TID 0000.0001) %MON dynstat_eta_min              =  -7.4963048886616E+00
(PID.TID 0000.0001) %MON dynstat_eta_mean             =  -1.3346479639129E+00
(PID.TID 0000.0001) %MON dynstat_eta_sd               =   2.4328215425462E+00
(PID.TID 0000.0001) %MON dynstat_eta_del2             =   1.8281035709974E-01
(PID.TID 0000.0001) %MON dynstat_uvel_max             =   6.7358781770720E-12
(PID.TID 0000.0001) %MON dynstat_uvel_min             =  -6.7524032930427E-12
(PID.TID 0000.0001) %MON dynstat_uvel_mean            =  -9.1323161944816E-26
(PID.TID 0000.0001) %MON dynstat_uvel_sd              =   9.4563005956230E-13
(PID.TID 0000.0001) %MON dynstat_uvel_del2            =   2.3062837499241E-14
(PID.TID 0000.0001) %MON dynstat_vvel_max             =   1.9875170565368E-01
(PID.TID 0000.0001) %MON dynstat_vvel_min             =  -1.1041146903646E-01
(PID.TID 0000.0001) %MON dynstat_vvel_mean            =   5.2524209814408E-07
(PID.TID 0000.0001) %MON dynstat_vvel_sd              =   5.1927126134996E-02
(PID.TID 0000.0001) %MON dynstat_vvel_del2            =   1.5258236274452E-05
(PID.TID 0000.0001) %MON dynstat_wvel_max             =   1.2383675283764E-02
(PID.TID 0000.0001) %MON dynstat_wvel_min             =  -7.7962808915143E-03
(PID.TID 0000.0001) %MON dynstat_wvel_mean            =   3.0019783529063E-05
(PID.TID 0000.0001) %MON dynstat_wvel_sd              =   6.8068479787813E-04
(PID.TID 0000.0001) %MON dynstat_wvel_del2            =   3.9325355758569E-06
(PID.TID 0000.0001) %MON dynstat_theta_max            =   1.9439662282839E+00
(PID.TID 0000.0001) %MON dynstat_theta_min            =  -1.8514214380612E+00
(PID.TID 0000.0001) %MON dynstat_theta_mean           =   2.2648902595110E-02
(PID.TID 0000.0001) %MON dynstat_theta_sd             =   1.2764104547193E+00
(PID.TID 0000.0001) %MON dynstat_theta_del2           =   5.7744441526024E-05
(PID.TID 0000.0001) %MON dynstat_salt_max             =   3.4692816183113E+01
(PID.TID 0000.0001) %MON dynstat_salt_min             =   3.3811989458803E+01
(PID.TID 0000.0001) %MON dynstat_salt_mean            =   3.4431635789490E+01
(PID.TID 0000.0001) %MON dynstat_salt_sd              =   1.8350638814578E-01
(PID.TID 0000.0001) %MON dynstat_salt_del2            =   1.5931160076639E-05
(PID.TID 0000.0001) %MON advcfl_uvel_max              =   5.3404907026724E-13
(PID.TID 0000.0001) %MON advcfl_vvel_max              =   6.8647589003346E-02
(PID.TID 0000.0001) %MON advcfl_wvel_max              =   3.7151025851292E-01
(PID.TID 0000.0001) %MON advcfl_W_hf_max              =   3.7151025851292E-01
(PID.TID 0000.0001) %MON pe_b_mean                    =  -2.8105354708345E-01
(PID.TID 0000.0001) %MON ke_max                       =   1.9738026825090E-02
(PID.TID 0000.0001) %MON ke_mean                      =   1.3481796804212E-03
(PID.TID 0000.0001) %MON ke_vol                       =   1.3174264251757E+12
(PID.TID 0000.0001) // =======================================================
(PID.TID 0000.0001) // End MONITOR dynamic field statistics
(PID.TID 0000.0001) // =======================================================
(PID.TID 0000.0001) // =======================================================
(PID.TID 0000.0001) // Begin OBCS MONITOR field statistics
(PID.TID 0000.0001) // =======================================================
(PID.TID 0000.0001) %MON obc_N_vVel_max               =   2.5000000000000E-02
(PID.TID 0000.0001) %MON obc_N_vVel_min               =  -2.5000000000000E-02
(PID.TID 0000.0001) %MON obc_N_vVel_mean              =   1.0701309254946E-18
(PID.TID 0000.0001) %MON obc_N_vVel_sd                =   1.4595032760272E-02
(PID.TID 0000.0001) %MON obc_N_vVel_Int               =   1.1141310096718E-11
(PID.TID 0000.0001) // =======================================================
(PID.TID 0000.0001) // End OBCS MONITOR field statistics
(PID.TID 0000.0001) // =======================================================
 Computing Diagnostic #    209  SHIfwFlx     Counter:       1   Parms: SM      L1      
 Computing Diagnostic #    210  SHIhtFlx     Counter:       1   Parms: SM      L1      
 Computing Diagnostic #    215  SHIgammT     Counter:       1   Parms: SM      L1      
 Computing Diagnostic #    216  SHIgammS     Counter:       1   Parms: SM      L1      
 Computing Diagnostic #    218  SHI_mass     Counter:       1   Parms: SM      L1      
 Computing Diagnostic #    219  SHIRshel     Counter:       1   Parms: SM      L1      
 Computing Diagnostic #    194  SI_Uvel      Counter:       1   Parms: UZ      L1      
 Computing Diagnostic #    195  SI_Vvel      Counter:       1   Parms: VZ      L1      
 Computing Diagnostic #    196  SI_Thick     Counter:       1   Parms: SM      L1      
 Computing Diagnostic #    199  SI_hmask     Counter:       1   Parms: SM      L1      
 Computing Diagnostic #    198  SI_float     Counter:       1   Parms: SM      L1      
 Computing Diagnostic #    217  SHIuStar     Counter:       1   Parms: SM      L1      
(PID.TID 0000.0001) %CHECKPOINT     11415 ckptA
(PID.TID 0000.0001)   Seconds in section "ALL                    [THE_MODEL_MAIN]":
(PID.TID 0000.0001)           User time:   18.844573974609375
(PID.TID 0000.0001)         System time:  0.12943300348706543
(PID.TID 0000.0001)     Wall clock time:   19.017664909362793
(PID.TID 0000.0001)          No. starts:           1
(PID.TID 0000.0001)           No. stops:           1
(PID.TID 0000.0001)   Seconds in section "INITIALISE_FIXED       [THE_MODEL_MAIN]":
(PID.TID 0000.0001)           User time:  0.12346599996089935
(PID.TID 0000.0001)         System time:   3.3278999151661992E-002
(PID.TID 0000.0001)     Wall clock time:  0.17258787155151367
(PID.TID 0000.0001)          No. starts:           1
(PID.TID 0000.0001)           No. stops:           1
(PID.TID 0000.0001)   Seconds in section "THE_MAIN_LOOP          [THE_MODEL_MAIN]":
(PID.TID 0000.0001)           User time:   18.721087440848351
(PID.TID 0000.0001)         System time:   9.6127003431320190E-002
(PID.TID 0000.0001)     Wall clock time:   18.845041990280151
(PID.TID 0000.0001)          No. starts:           1
(PID.TID 0000.0001)           No. stops:           1
(PID.TID 0000.0001)   Seconds in section "INITIALISE_VARIA    [THE_MAIN_LOOP]":
(PID.TID 0000.0001)           User time:  0.23218201100826263
(PID.TID 0000.0001)         System time:   2.7376998215913773E-002
(PID.TID 0000.0001)     Wall clock time:  0.28673911094665527
(PID.TID 0000.0001)          No. starts:           1
(PID.TID 0000.0001)           No. stops:           1
(PID.TID 0000.0001)   Seconds in section "MAIN LOOP           [THE_MAIN_LOOP]":
(PID.TID 0000.0001)           User time:   18.488877803087234
(PID.TID 0000.0001)         System time:   6.8745002150535583E-002
(PID.TID 0000.0001)     Wall clock time:   18.558274984359741
(PID.TID 0000.0001)          No. starts:           1
(PID.TID 0000.0001)           No. stops:           1
(PID.TID 0000.0001)   Seconds in section "MAIN_DO_LOOP        [THE_MAIN_LOOP]":
(PID.TID 0000.0001)           User time:   18.488706856966019
(PID.TID 0000.0001)         System time:   6.8736009299755096E-002
(PID.TID 0000.0001)     Wall clock time:   18.558092355728149
(PID.TID 0000.0001)          No. starts:          20
(PID.TID 0000.0001)           No. stops:          20
(PID.TID 0000.0001)   Seconds in section "FORWARD_STEP        [MAIN_DO_LOOP]":
(PID.TID 0000.0001)           User time:   18.488415241241455
(PID.TID 0000.0001)         System time:   6.8721011281013489E-002
(PID.TID 0000.0001)     Wall clock time:   18.557783842086792
(PID.TID 0000.0001)          No. starts:          20
(PID.TID 0000.0001)           No. stops:          20
(PID.TID 0000.0001)   Seconds in section "SHELFICE_REMESHING     [FORWARD_STEP]":
(PID.TID 0000.0001)           User time:  0.11821269989013672
(PID.TID 0000.0001)         System time:   6.7003071308135986E-005
(PID.TID 0000.0001)     Wall clock time:  0.11829328536987305
(PID.TID 0000.0001)          No. starts:          20
(PID.TID 0000.0001)           No. stops:          20
(PID.TID 0000.0001)   Seconds in section "DO_STATEVARS_DIAGS  [FORWARD_STEP]":
(PID.TID 0000.0001)           User time:   3.3283829689025879E-003
(PID.TID 0000.0001)         System time:   4.5008957386016846E-005
(PID.TID 0000.0001)     Wall clock time:   3.3769607543945312E-003
(PID.TID 0000.0001)          No. starts:          60
(PID.TID 0000.0001)           No. stops:          60
(PID.TID 0000.0001)   Seconds in section "LOAD_FIELDS_DRIVER  [FORWARD_STEP]":
(PID.TID 0000.0001)           User time:   4.5362114906311035E-004
(PID.TID 0000.0001)         System time:   2.7000904083251953E-005
(PID.TID 0000.0001)     Wall clock time:   4.8089027404785156E-004
(PID.TID 0000.0001)          No. starts:          20
(PID.TID 0000.0001)           No. stops:          20
(PID.TID 0000.0001)   Seconds in section "EXTERNAL_FLDS_LOAD [LOAD_FLDS_DRIVER]":
(PID.TID 0000.0001)           User time:   1.5258789062500000E-004
(PID.TID 0000.0001)         System time:   7.9944729804992676E-006
(PID.TID 0000.0001)     Wall clock time:   1.6379356384277344E-004
(PID.TID 0000.0001)          No. starts:          20
(PID.TID 0000.0001)           No. stops:          20
(PID.TID 0000.0001)   Seconds in section "DO_ATMOSPHERIC_PHYS [FORWARD_STEP]":
(PID.TID 0000.0001)           User time:   2.0784139633178711E-004
(PID.TID 0000.0001)         System time:   1.2993812561035156E-005
(PID.TID 0000.0001)     Wall clock time:   2.2268295288085938E-004
(PID.TID 0000.0001)          No. starts:          20
(PID.TID 0000.0001)           No. stops:          20
(PID.TID 0000.0001)   Seconds in section "DO_OCEANIC_PHYS     [FORWARD_STEP]":
(PID.TID 0000.0001)           User time:  0.32163330912590027
(PID.TID 0000.0001)         System time:   1.0370999574661255E-002
(PID.TID 0000.0001)     Wall clock time:  0.33202385902404785
(PID.TID 0000.0001)          No. starts:          20
(PID.TID 0000.0001)           No. stops:          20
(PID.TID 0000.0001)   Seconds in section "SHELFICE_THERMODYNAMICS [DO_OCEANIC_PHYS]":
(PID.TID 0000.0001)           User time:   1.4152139425277710E-002
(PID.TID 0000.0001)         System time:   8.1401318311691284E-004
(PID.TID 0000.0001)     Wall clock time:   1.4967203140258789E-002
(PID.TID 0000.0001)          No. starts:          20
(PID.TID 0000.0001)           No. stops:          20
(PID.TID 0000.0001)   Seconds in section "STREAMICE_TIMESTEP [FORWARD_STEP]":
(PID.TID 0000.0001)           User time:   2.6205152273178101E-002
(PID.TID 0000.0001)         System time:   3.0299276113510132E-004
(PID.TID 0000.0001)     Wall clock time:   2.6512622833251953E-002
(PID.TID 0000.0001)          No. starts:          20
(PID.TID 0000.0001)           No. stops:          20
(PID.TID 0000.0001)   Seconds in section "STREAMICE_ADVECT_THICKNESS":
(PID.TID 0000.0001)           User time:   1.4318346977233887E-002
(PID.TID 0000.0001)         System time:   1.6699731349945068E-004
(PID.TID 0000.0001)     Wall clock time:   1.4475584030151367E-002
(PID.TID 0000.0001)          No. starts:          20
(PID.TID 0000.0001)           No. stops:          20
(PID.TID 0000.0001)   Seconds in section "DYNAMICS            [FORWARD_STEP]":
(PID.TID 0000.0001)           User time:   8.0378443300724030
(PID.TID 0000.0001)         System time:   1.6086995601654053E-002
(PID.TID 0000.0001)     Wall clock time:   8.0542428493499756
(PID.TID 0000.0001)          No. starts:          20
(PID.TID 0000.0001)           No. stops:          20
(PID.TID 0000.0001)   Seconds in section "UPDATE_SURF_DR      [FORWARD_STEP]":
(PID.TID 0000.0001)           User time:   3.7860274314880371E-003
(PID.TID 0000.0001)         System time:   3.2000243663787842E-005
(PID.TID 0000.0001)     Wall clock time:   3.8113594055175781E-003
(PID.TID 0000.0001)          No. starts:          20
(PID.TID 0000.0001)           No. stops:          20
(PID.TID 0000.0001)   Seconds in section "UPDATE_CG2D         [FORWARD_STEP]":
(PID.TID 0000.0001)           User time:   9.9051654338836670E-002
(PID.TID 0000.0001)         System time:   1.8800795078277588E-004
(PID.TID 0000.0001)     Wall clock time:   9.9277973175048828E-002
(PID.TID 0000.0001)          No. starts:          20
(PID.TID 0000.0001)           No. stops:          20
(PID.TID 0000.0001)   Seconds in section "SOLVE_FOR_PRESSURE  [FORWARD_STEP]":
(PID.TID 0000.0001)           User time:  0.53170120716094971
(PID.TID 0000.0001)         System time:   0.0000000000000000
(PID.TID 0000.0001)     Wall clock time:  0.53174471855163574
(PID.TID 0000.0001)          No. starts:          20
(PID.TID 0000.0001)           No. stops:          20
(PID.TID 0000.0001)   Seconds in section "MOM_CORRECTION_STEP [FORWARD_STEP]":
(PID.TID 0000.0001)           User time:  0.25104129314422607
(PID.TID 0000.0001)         System time:   1.9967555999755859E-006
(PID.TID 0000.0001)     Wall clock time:  0.25108480453491211
(PID.TID 0000.0001)          No. starts:          20
(PID.TID 0000.0001)           No. stops:          20
(PID.TID 0000.0001)   Seconds in section "INTEGR_CONTINUITY   [FORWARD_STEP]":
(PID.TID 0000.0001)           User time:  0.27315926551818848
(PID.TID 0000.0001)         System time:   6.0051679611206055E-006
(PID.TID 0000.0001)     Wall clock time:  0.27324271202087402
(PID.TID 0000.0001)          No. starts:          20
(PID.TID 0000.0001)           No. stops:          20
(PID.TID 0000.0001)   Seconds in section "CALC_SURF_DR      [FORWARD_STEP]":
(PID.TID 0000.0001)           User time:   6.4560174942016602E-003
(PID.TID 0000.0001)         System time:   9.9986791610717773E-006
(PID.TID 0000.0001)     Wall clock time:   6.4740180969238281E-003
(PID.TID 0000.0001)          No. starts:          20
(PID.TID 0000.0001)           No. stops:          20
(PID.TID 0000.0001)   Seconds in section "BLOCKING_EXCHANGES  [FORWARD_STEP]":
(PID.TID 0000.0001)           User time:  0.25074988603591919
(PID.TID 0000.0001)         System time:   7.3000788688659668E-005
(PID.TID 0000.0001)     Wall clock time:  0.25089073181152344
(PID.TID 0000.0001)          No. starts:          40
(PID.TID 0000.0001)           No. stops:          40
(PID.TID 0000.0001)   Seconds in section "THERMODYNAMICS      [FORWARD_STEP]":
(PID.TID 0000.0001)           User time:   6.6503138542175293
(PID.TID 0000.0001)         System time:   1.6218997538089752E-002
(PID.TID 0000.0001)     Wall clock time:   6.6668853759765625
(PID.TID 0000.0001)          No. starts:          20
(PID.TID 0000.0001)           No. stops:          20
(PID.TID 0000.0001)   Seconds in section "TRC_CORRECTION_STEP [FORWARD_STEP]":
(PID.TID 0000.0001)           User time:  0.82087671756744385
(PID.TID 0000.0001)         System time:   3.9250031113624573E-003
(PID.TID 0000.0001)     Wall clock time:  0.82485437393188477
(PID.TID 0000.0001)          No. starts:          20
(PID.TID 0000.0001)           No. stops:          20
(PID.TID 0000.0001)   Seconds in section "MONITOR             [FORWARD_STEP]":
(PID.TID 0000.0001)           User time:  0.99230206012725830
(PID.TID 0000.0001)         System time:   4.0149986743927002E-003
(PID.TID 0000.0001)     Wall clock time:  0.99638056755065918
(PID.TID 0000.0001)          No. starts:          20
(PID.TID 0000.0001)           No. stops:          20
(PID.TID 0000.0001)   Seconds in section "DO_THE_MODEL_IO     [FORWARD_STEP]":
(PID.TID 0000.0001)           User time:   7.6107978820800781E-002
(PID.TID 0000.0001)         System time:   1.3239003717899323E-002
(PID.TID 0000.0001)     Wall clock time:   8.9395761489868164E-002
(PID.TID 0000.0001)          No. starts:          20
(PID.TID 0000.0001)           No. stops:          20
(PID.TID 0000.0001)   Seconds in section "DO_WRITE_PICKUP     [FORWARD_STEP]":
(PID.TID 0000.0001)           User time:   2.0587563514709473E-002
(PID.TID 0000.0001)         System time:   4.0090084075927734E-003
(PID.TID 0000.0001)     Wall clock time:   2.4596452713012695E-002
(PID.TID 0000.0001)          No. starts:          20
(PID.TID 0000.0001)           No. stops:          20
(PID.TID 0000.0001) // ======================================================
(PID.TID 0000.0001) // Tile <-> Tile communication statistics
(PID.TID 0000.0001) // ======================================================
(PID.TID 0000.0001) // o Tile number: 000001
(PID.TID 0000.0001) //         No. X exchanges =              0
(PID.TID 0000.0001) //            Max. X spins =              0
(PID.TID 0000.0001) //            Min. X spins =     1000000000
(PID.TID 0000.0001) //          Total. X spins =              0
(PID.TID 0000.0001) //            Avg. X spins =       0.00E+00
(PID.TID 0000.0001) //         No. Y exchanges =              0
(PID.TID 0000.0001) //            Max. Y spins =              0
(PID.TID 0000.0001) //            Min. Y spins =     1000000000
(PID.TID 0000.0001) //          Total. Y spins =              0
(PID.TID 0000.0001) //            Avg. Y spins =       0.00E+00
(PID.TID 0000.0001) // o Thread number: 000001
(PID.TID 0000.0001) //            No. barriers =          25340
(PID.TID 0000.0001) //      Max. barrier spins =              1
(PID.TID 0000.0001) //      Min. barrier spins =              1
(PID.TID 0000.0001) //     Total barrier spins =          25340
(PID.TID 0000.0001) //      Avg. barrier spins =       1.00E+00
PROGRAM MAIN: Execution ended Normally
