(PID.TID 0000.0001) 
(PID.TID 0000.0001) // ======================================================
(PID.TID 0000.0001) //                      MITgcm UV
(PID.TID 0000.0001) //                      =========
(PID.TID 0000.0001) // ======================================================
(PID.TID 0000.0001) // execution environment starting up...
(PID.TID 0000.0001) 
(PID.TID 0000.0001) // MITgcmUV version:  checkpoint65v
(PID.TID 0000.0001) // Build user:        dgoldberg
(PID.TID 0000.0001) // Build host:        baudelaire
(PID.TID 0000.0001) // Build date:        Thu May  5 14:23:44 EDT 2016
(PID.TID 0000.0001) 
(PID.TID 0000.0001) // =======================================================
(PID.TID 0000.0001) // Execution Environment parameter file "eedata"
(PID.TID 0000.0001) // =======================================================
(PID.TID 0000.0001) ># Example "eedata" file
(PID.TID 0000.0001) ># Lines beginning "#" are comments
(PID.TID 0000.0001) ># nTx - No. threads per process in X
(PID.TID 0000.0001) ># nTy - No. threads per process in Y
(PID.TID 0000.0001) > &EEPARMS
(PID.TID 0000.0001) > /
(PID.TID 0000.0001) ># Note: Some systems use & as the
(PID.TID 0000.0001) ># namelist terminator. Other systems
(PID.TID 0000.0001) ># use a / character (as shown here).
(PID.TID 0000.0001) 
(PID.TID 0000.0001) // =======================================================
(PID.TID 0000.0001) // Computational Grid Specification ( see files "SIZE.h" )
(PID.TID 0000.0001) //                                  ( and "eedata"       )
(PID.TID 0000.0001) // =======================================================
(PID.TID 0000.0001)      nPx =    1 ; /* No. processes in X */
(PID.TID 0000.0001)      nPy =    1 ; /* No. processes in Y */
(PID.TID 0000.0001)      nSx =    1 ; /* No. tiles in X per process */
(PID.TID 0000.0001)      nSy =    1 ; /* No. tiles in Y per process */
(PID.TID 0000.0001)      sNx =    3 ; /* Tile size in X */
(PID.TID 0000.0001)      sNy =  400 ; /* Tile size in Y */
(PID.TID 0000.0001)      OLx =    3 ; /* Tile overlap distance in X */
(PID.TID 0000.0001)      OLy =    3 ; /* Tile overlap distance in Y */
(PID.TID 0000.0001)      nTx =    1 ; /* No. threads in X per process */
(PID.TID 0000.0001)      nTy =    1 ; /* No. threads in Y per process */
(PID.TID 0000.0001)       Nr =  130 ; /* No. levels in the vertical   */
(PID.TID 0000.0001)       Nx =    3 ; /* Total domain size in X ( = nPx*nSx*sNx ) */
(PID.TID 0000.0001)       Ny =  400 ; /* Total domain size in Y ( = nPy*nSy*sNy ) */
(PID.TID 0000.0001)   nTiles =    1 ; /* Total no. tiles per process ( = nSx*nSy ) */
(PID.TID 0000.0001)   nProcs =    1 ; /* Total no. processes ( = nPx*nPy ) */
(PID.TID 0000.0001) nThreads =    1 ; /* Total no. threads per process ( = nTx*nTy ) */
(PID.TID 0000.0001) usingMPI =    F ; /* Flag used to control whether MPI is in use */
(PID.TID 0000.0001)                   /*  note: To execute a program with MPI calls */
(PID.TID 0000.0001)                   /*  it must be launched appropriately e.g     */
(PID.TID 0000.0001)                   /*  "mpirun -np 64 ......"                    */
(PID.TID 0000.0001) useCoupler=    F ;/* Flag used to control communications with   */
(PID.TID 0000.0001)                   /*  other model components, through a coupler */
(PID.TID 0000.0001) debugMode =    F ; /* print debug msg. (sequence of S/R calls)  */
(PID.TID 0000.0001) printMapIncludesZeros=    F ; /* print zeros in Std.Output maps */
(PID.TID 0000.0001) maxLengthPrt1D=   65 /* maxLength of 1D array printed to StdOut */
(PID.TID 0000.0001) 
(PID.TID 0000.0001) // ======================================================
(PID.TID 0000.0001) // Mapping of tiles to threads
(PID.TID 0000.0001) // ======================================================
(PID.TID 0000.0001) // -o- Thread   1, tiles (   1:   1,   1:   1)
(PID.TID 0000.0001) 
(PID.TID 0000.0001) // ======================================================
(PID.TID 0000.0001) // Tile <-> Tile connectvity table
(PID.TID 0000.0001) // ======================================================
(PID.TID 0000.0001) // Tile number: 000001 (process no. = 000000)
(PID.TID 0000.0001) //        WEST: Tile = 000001, Process = 000000, Comm = put
(PID.TID 0000.0001) //                bi = 000001, bj = 000001
(PID.TID 0000.0001) //        EAST: Tile = 000001, Process = 000000, Comm = put
(PID.TID 0000.0001) //                bi = 000001, bj = 000001
(PID.TID 0000.0001) //       SOUTH: Tile = 000001, Process = 000000, Comm = put
(PID.TID 0000.0001) //                bi = 000001, bj = 000001
(PID.TID 0000.0001) //       NORTH: Tile = 000001, Process = 000000, Comm = put
(PID.TID 0000.0001) //                bi = 000001, bj = 000001
(PID.TID 0000.0001) 
(PID.TID 0000.0001)  INI_PARMS: opening model parameter file "data"
(PID.TID 0000.0001)  OPEN_COPY_DATA_FILE: opening file data
(PID.TID 0000.0001) // =======================================================
(PID.TID 0000.0001) // Parameter file "data"
(PID.TID 0000.0001) // =======================================================
(PID.TID 0000.0001) >#:::====================
(PID.TID 0000.0001) ># | Model parameters |
(PID.TID 0000.0001) ># ====================
(PID.TID 0000.0001) >#
(PID.TID 0000.0001) ># Continuous equation parameters
(PID.TID 0000.0001) > &PARM01
(PID.TID 0000.0001) ># momstepping=.FALSE.,
(PID.TID 0000.0001) ># tempstepping=.FALSE.,
(PID.TID 0000.0001) ># saltstepping=.FALSE.,
(PID.TID 0000.0001) > Tref = 50*-1.9,
(PID.TID 0000.0001) > Sref = 50*34.4,
(PID.TID 0000.0001) > viscAr=1.E-3,
(PID.TID 0000.0001) >#viscAh=600.0,
(PID.TID 0000.0001) > viscAhGrid=0.2,
(PID.TID 0000.0001) > viscA4Grid=0.02,
(PID.TID 0000.0001) > no_slip_sides=.FALSE.,
(PID.TID 0000.0001) > no_slip_bottom=.FALSE.,
(PID.TID 0000.0001) > diffKhT= 100.0,
(PID.TID 0000.0001) >#diffKhT= 600.0,
(PID.TID 0000.0001) > diffKrT=5.E-5,
(PID.TID 0000.0001) > diffKhS= 100.0,
(PID.TID 0000.0001) >#diffKhS= 600.0,
(PID.TID 0000.0001) > diffKrS=5.E-5,
(PID.TID 0000.0001) > bottomDragQuadratic=2.5E-3,
(PID.TID 0000.0001) > staggerTimestep = .true.,
(PID.TID 0000.0001) > tempAdvScheme=30,
(PID.TID 0000.0001) > saltAdvScheme=30,
(PID.TID 0000.0001) > vectorInvariantMomentum = .true.,
(PID.TID 0000.0001) >### momImplVertAdv=.true.,
(PID.TID 0000.0001) > tempImplVertAdv=.true.,
(PID.TID 0000.0001) > saltImplVertAdv=.true.,
(PID.TID 0000.0001) > eosType='JMD95Z',
(PID.TID 0000.0001) >#tAlpha = 2.E-4,
(PID.TID 0000.0001) >#sBeta  = 7.4E-4,
(PID.TID 0000.0001) > HeatCapacity_cp = 3974.0,
(PID.TID 0000.0001) > rhoConst=1000.,
(PID.TID 0000.0001) > rhoNil=1000.,
(PID.TID 0000.0001) > gravity=9.81,
(PID.TID 0000.0001) > gBaro=9.81,
(PID.TID 0000.0001) > implicitDiffusion = .true.,
(PID.TID 0000.0001) > implicitViscosity = .true.,
(PID.TID 0000.0001) > rigidLid=.FALSE.,
(PID.TID 0000.0001) > implicitFreeSurface=.TRUE.,
(PID.TID 0000.0001) > useRealFreshWaterFlux = .true.,
(PID.TID 0000.0001) > exactConserv=.TRUE.,
(PID.TID 0000.0001) ># start nlfs with rstar
(PID.TID 0000.0001) >#select_rStar=2,
(PID.TID 0000.0001) > nonlinFreeSurf=4,
(PID.TID 0000.0001) > hFacInf=0.2,
(PID.TID 0000.0001) > hFacSup=2.0,
(PID.TID 0000.0001) ># end nlfs with rstar
(PID.TID 0000.0001) > hFacMin=0.2,
(PID.TID 0000.0001) >#integr_GeoPot = 1,
(PID.TID 0000.0001) >#ivdc_kappa = 0.005.,
(PID.TID 0000.0001) >#implicitDiffusion=.true.,
(PID.TID 0000.0001) >#implicitViscosity=.true.,
(PID.TID 0000.0001) >#useCDscheme=.true.,
(PID.TID 0000.0001) >#nonHydrostatic=.true.,
(PID.TID 0000.0001) >#allowFreezing = .true.,
(PID.TID 0000.0001) > readBinaryPrec=64,
(PID.TID 0000.0001) >#writeBinaryPrec=64,
(PID.TID 0000.0001) >debuglevel = 1,
(PID.TID 0000.0001) > selectCoriMap = 0,
(PID.TID 0000.0001) > f0 = 0.0,
(PID.TID 0000.0001) > useSingleCpuIO=.TRUE.,
(PID.TID 0000.0001) > globalFiles=.TRUE.,
(PID.TID 0000.0001) > useCoriolis=.TRUE.,
(PID.TID 0000.0001) > /
(PID.TID 0000.0001) >
(PID.TID 0000.0001) ># Elliptic solver parameters
(PID.TID 0000.0001) > &PARM02
(PID.TID 0000.0001) > cg2dMaxIters=300,
(PID.TID 0000.0001) > cg2dTargetResidual=1.E-11,
(PID.TID 0000.0001) >#cg3dMaxIters=40,
(PID.TID 0000.0001) >#cg3dTargetResidual=1.E-13,
(PID.TID 0000.0001) > /
(PID.TID 0000.0001) >
(PID.TID 0000.0001) >#Time stepping parameters
(PID.TID 0000.0001) > &PARM03
(PID.TID 0000.0001) ># niter0=0,
(PID.TID 0000.0001) ># nTimeSteps=25920000.,
(PID.TID 0000.0001) > nTimeSteps=12,
(PID.TID 0000.0001) > startTime=2592000.,
(PID.TID 0000.0001) ># startTime = 0.,
(PID.TID 0000.0001) >#startTime=62208000.,
(PID.TID 0000.0001) >#startTime=15552000.,
(PID.TID 0000.0001) ># endTime=2592000.,
(PID.TID 0000.0001) > deltaT=300.0,
(PID.TID 0000.0001) >### deltaT=1200.0,
(PID.TID 0000.0001) > forcing_In_AB  = .false.,
(PID.TID 0000.0001) >#rCD = 0.9896,
(PID.TID 0000.0001) > abEps=0.1,
(PID.TID 0000.0001) > cAdjFreq = -1.,
(PID.TID 0000.0001) > pChkptFreq=2592000,
(PID.TID 0000.0001) > chkptFreq=2592000.0,
(PID.TID 0000.0001) ># pChkptFreq=600.0,
(PID.TID 0000.0001) ># chkptFreq=600.0,
(PID.TID 0000.0001) > dumpFreq=15552000,
(PID.TID 0000.0001) > monitorFreq=1.,
(PID.TID 0000.0001) > monitorSelect=1,
(PID.TID 0000.0001) ># monitorFreq=2592000.,
(PID.TID 0000.0001) > /
(PID.TID 0000.0001) >
(PID.TID 0000.0001) ># Gridding parameters
(PID.TID 0000.0001) > &PARM04
(PID.TID 0000.0001) > usingCartesianGrid=.FALSE.,
(PID.TID 0000.0001) > usingSphericalPolarGrid=.TRUE.,
(PID.TID 0000.0001) >#delR = 10., 10., 10., 10., 10., 10., 10., 10.01, 10.03, 10.11,
(PID.TID 0000.0001) >#10.32, 10.8, 11.76, 13.42, 16.04, 19.82, 24.85, 31.1, 38.42, 46.5,
(PID.TID 0000.0001) >#55., 63.5, 71.58, 78.9, 85.15, 90.18, 93.96, 96.58, 98.25, 99.25,
(PID.TID 0000.0001) >#100.01, 101.33, 104.56, 111.33, 122.83, 139.09, 158.94, 180.83, 203.55, 226.5,
(PID.TID 0000.0001) >#249.5, 272.5, 295.5, 318.5, 341.5, 364.5, 387.5, 410.5, 433.5, 456.5,
(PID.TID 0000.0001) > delR=130*10.,
(PID.TID 0000.0001) > delX=3*.125,
(PID.TID 0000.0001) > delY=400*.0078125,
(PID.TID 0000.0001) ># delYFile='dlat.bin',
(PID.TID 0000.0001) ># delY=30*10e3,
(PID.TID 0000.0001) > xgOrigin = -105.5,
(PID.TID 0000.0001) > ygOrigin =  -75.4457,
(PID.TID 0000.0001) > /
(PID.TID 0000.0001) >
(PID.TID 0000.0001) ># Input datasets
(PID.TID 0000.0001) > &PARM05
(PID.TID 0000.0001) > bathyFile='bathy101.box',
(PID.TID 0000.0001) > hydrogThetaFile='theta.init',	
(PID.TID 0000.0001) > hydrogSaltFile='salt.init',
(PID.TID 0000.0001) > pSurfInitFile='etainit.round.bin',
(PID.TID 0000.0001) > /
(PID.TID 0000.0001) 
(PID.TID 0000.0001)  INI_PARMS ; starts to read PARM01
(PID.TID 0000.0001)  INI_PARMS ; read PARM01 : OK
(PID.TID 0000.0001)  INI_PARMS ; starts to read PARM02
(PID.TID 0000.0001)  INI_PARMS ; read PARM02 : OK
(PID.TID 0000.0001)  INI_PARMS ; starts to read PARM03
(PID.TID 0000.0001)  INI_PARMS ; read PARM03 : OK
(PID.TID 0000.0001)  INI_PARMS ; starts to read PARM04
(PID.TID 0000.0001)  INI_PARMS ; read PARM04 : OK
(PID.TID 0000.0001)  INI_PARMS ; starts to read PARM05
(PID.TID 0000.0001)  INI_PARMS ; read PARM05 : OK
(PID.TID 0000.0001)  INI_PARMS: finished reading file "data"
(PID.TID 0000.0001)  PACKAGES_BOOT: opening data.pkg
(PID.TID 0000.0001)  OPEN_COPY_DATA_FILE: opening file data.pkg
(PID.TID 0000.0001) // =======================================================
(PID.TID 0000.0001) // Parameter file "data.pkg"
(PID.TID 0000.0001) // =======================================================
(PID.TID 0000.0001) ># Packages
(PID.TID 0000.0001) > &PACKAGES
(PID.TID 0000.0001) >#useKPP=.true.,
(PID.TID 0000.0001) > useOBCS=.true.,
(PID.TID 0000.0001) > useMNC=.FALSE.,
(PID.TID 0000.0001) > useShelfIce=.true.,
(PID.TID 0000.0001) > useStreamIce=.true.,
(PID.TID 0000.0001) >#useSEAICE=.true.,
(PID.TID 0000.0001) > useDiagnostics = .false.,
(PID.TID 0000.0001) > /
(PID.TID 0000.0001) 
(PID.TID 0000.0001)  PACKAGES_BOOT: finished reading data.pkg
(PID.TID 0000.0001)  PACKAGES_BOOT: On/Off package Summary
 --------  pkgs with a standard "usePKG" On/Off switch in "data.pkg":  --------
 pkg/obcs                 compiled   and   used ( useOBCS                  = T )
 pkg/shelfice             compiled   and   used ( useShelfIce              = T )
 pkg/streamice            compiled   and   used ( useStreamIce             = T )
 pkg/diagnostics          compiled but not used ( useDiagnostics           = F )
 -------- pkgs without standard "usePKG" On/Off switch in "data.pkg":  --------
 pkg/generic_advdiff      compiled   and   used ( useGAD                   = T )
 pkg/mom_common           compiled   and   used ( momStepping              = T )
 pkg/mom_vecinv           compiled   and   used ( +vectorInvariantMomentum = T )
 pkg/mom_fluxform         compiled but not used ( & not vectorInvariantMom = F )
 pkg/monitor              compiled   and   used ( monitorFreq > 0.         = T )
 pkg/debug                compiled but not used ( debugMode                = F )
 pkg/rw                   compiled   and   used
 pkg/mdsio                compiled   and   used
(PID.TID 0000.0001)  PACKAGES_BOOT: End of package Summary
(PID.TID 0000.0001) 
(PID.TID 0000.0001)  OBCS_READPARMS: opening data.obcs
(PID.TID 0000.0001)  OPEN_COPY_DATA_FILE: opening file data.obcs
(PID.TID 0000.0001) // =======================================================
(PID.TID 0000.0001) // Parameter file "data.obcs"
(PID.TID 0000.0001) // =======================================================
(PID.TID 0000.0001) ># Open-boundaries
(PID.TID 0000.0001) > &OBCS_PARM01
(PID.TID 0000.0001) > OB_Jnorth=3*400,
(PID.TID 0000.0001) > useOBCSprescribe=.true.,
(PID.TID 0000.0001) > useOBCSsponge=.true.,
(PID.TID 0000.0001) ># OBWuFile='uvel.obw',
(PID.TID 0000.0001) > OBNvFile='vvel.obw',
(PID.TID 0000.0001) > OBNtFile='theta.obw',
(PID.TID 0000.0001) > OBNsFile='salt.obw',
(PID.TID 0000.0001) > useOrlanskiNorth=.FALSE.,
(PID.TID 0000.0001) > /
(PID.TID 0000.0001) >
(PID.TID 0000.0001) ># Orlanski parameters
(PID.TID 0000.0001) > &OBCS_PARM02
(PID.TID 0000.0001) >#Cmax=0.45,
(PID.TID 0000.0001) >#cVelTimeScale=1000.,
(PID.TID 0000.0001) > /
(PID.TID 0000.0001) >
(PID.TID 0000.0001) ># Sponge layer parameters
(PID.TID 0000.0001) > &OBCS_PARM03
(PID.TID 0000.0001) > spongeThickness = 20,
(PID.TID 0000.0001) > Vrelaxobcsbound = 864000.,
(PID.TID 0000.0001) > Urelaxobcsbound = 864000.,
(PID.TID 0000.0001) > /
(PID.TID 0000.0001) 
(PID.TID 0000.0001)  OBCS_READPARMS: finished reading data.obcs
(PID.TID 0000.0001)  OB_indexUnset = /* unset OB index value (i.e. no OB) */
(PID.TID 0000.0001)                       0
(PID.TID 0000.0001)     ;
(PID.TID 0000.0001)  Northern OB global indices : OB_Jnorth =
(PID.TID 0000.0001)     3 @      400                            /* I =  1:  3 */
(PID.TID 0000.0001)  Southern OB global indices : OB_Jsouth =
(PID.TID 0000.0001)     3 @        0                            /* I =  1:  3 */
(PID.TID 0000.0001)  Eastern  OB global indices : OB_Ieast =
(PID.TID 0000.0001)   400 @        0                            /* J =  1:400 */
(PID.TID 0000.0001)  Western  OB global indices : OB_Iwest =
(PID.TID 0000.0001)   400 @        0                            /* J =  1:400 */
(PID.TID 0000.0001) 
(PID.TID 0000.0001)  SHELFICE_READPARMS: opening data.shelfice
(PID.TID 0000.0001)  OPEN_COPY_DATA_FILE: opening file data.shelfice
(PID.TID 0000.0001) // =======================================================
(PID.TID 0000.0001) // Parameter file "data.shelfice"
(PID.TID 0000.0001) // =======================================================
(PID.TID 0000.0001) ># ===================================
(PID.TID 0000.0001) ># | Parameters for SHELFICE package |
(PID.TID 0000.0001) ># ===================================
(PID.TID 0000.0001) > &SHELFICE_PARM01
(PID.TID 0000.0001) > SHELFICEwriteState = .true.,
(PID.TID 0000.0001) >#mult_shelfice=1.,
(PID.TID 0000.0001) >#useISOMIPTD = .true.,
(PID.TID 0000.0001) > SHELFICEconserve = .true.,
(PID.TID 0000.0001) > SHELFICEboundaryLayer = .true.,
(PID.TID 0000.0001) ># SHELFICEtopoFile='shelftopo.pig.bin',
(PID.TID 0000.0001) > SHELFICEtopoFile='shelftopo.round.bin',
(PID.TID 0000.0001) ># SHELFICEloadAnomalyFile = 'pload.pig.jmd95z',
(PID.TID 0000.0001) ># SHELFICEMassDynTendFile = 'MDS.bin',
(PID.TID 0000.0001) ># SHELFICEGroundInitFile= 'shelficegroundinit.bin',
(PID.TID 0000.0001) ># SHELFICEGroundTopoFile= 'shelftopo.ground.bin',
(PID.TID 0000.0001) > SHELFICErealFWflux =.true.,
(PID.TID 0000.0001) > SHELFICEmassFile = 'shelficemassinit.bin',
(PID.TID 0000.0001) > SHELFICEuseGammaFrict = .true.,
(PID.TID 0000.0001) > SHELFICEDragQuadratic = 0.0015,
(PID.TID 0000.0001) > shiCdrag = 0.0015,
(PID.TID 0000.0001) > SHELFICEMassStepping = .true.,
(PID.TID 0000.0001) > SHELFICERemeshFrequency = 1800.0,
(PID.TID 0000.0001) > SHELFICESplitThreshold =1.25,
(PID.TID 0000.0001) > SHELFICEMergeThreshold =0.24,
(PID.TID 0000.0001) > SHELFICEEtaSponge = .true.,
(PID.TID 0000.0001) > shelficeEtaRelax = 432000.,
(PID.TID 0000.0001) > shelfice_etarestore_spongewidth = 5,
(PID.TID 0000.0001) > shelfice_dig_ice = .true.
(PID.TID 0000.0001) > /
(PID.TID 0000.0001) 
(PID.TID 0000.0001)  SHELFICE_READPARMS: finished reading data.shelfice
(PID.TID 0000.0001) STREAMICE_READPARMS: opening data.streamice
(PID.TID 0000.0001)  OPEN_COPY_DATA_FILE: opening file data.streamice
(PID.TID 0000.0001) // =======================================================
(PID.TID 0000.0001) // Parameter file "data.streamice"
(PID.TID 0000.0001) // =======================================================
(PID.TID 0000.0001) ># ====================================
(PID.TID 0000.0001) ># | Parameters for STREAMICE package |
(PID.TID 0000.0001) ># ====================================
(PID.TID 0000.0001) > &STREAMICE_PARM01
(PID.TID 0000.0001) > streamice_maxnliter_cpl = 1,
(PID.TID 0000.0001) > streamice_maxcgiter_cpl = 700,
(PID.TID 0000.0001) > STREAMICE_allow_cpl=.true.,
(PID.TID 0000.0001) > streamice_vel_update = 43200.,
(PID.TID 0000.0001) > streamice_density = 917.,
(PID.TID 0000.0001) > streamice_density_ocean_avg = 1028.,
(PID.TID 0000.0001) > B_glen_isothermal = 700.,
(PID.TID 0000.0001) > C_basal_fric_const = 5.,
(PID.TID 0000.0001) > n_glen = 3.0,
(PID.TID 0000.0001) > n_basal_friction = 1.,
(PID.TID 0000.0001) > streamice_diagnostic_only=.false.,
(PID.TID 0000.0001) > eps_glen_min = 1.0e-12,
(PID.TID 0000.0001) > eps_u_min = 1.0e-12,
(PID.TID 0000.0001) > streamice_cg_tol = 1.0e-6,
(PID.TID 0000.0001) > STREAMICE_lower_cg_tol = .true.,
(PID.TID 0000.0001) > streamice_nonlin_tol = .000001,
(PID.TID 0000.0001) > streamice_nonlin_tol_fp = .00000001,
(PID.TID 0000.0001) > streamice_max_cg_iter = 700,
(PID.TID 0000.0001) > streamice_max_nl_iter = 50,
(PID.TID 0000.0001) > STREAMICE_calve_to_mask = .false.,
(PID.TID 0000.0001) > streamice_CFL_factor = 0.5,
(PID.TID 0000.0001) > STREAMICE_dump_mdsio = .true.,
(PID.TID 0000.0001) > streamice_bg_surf_slope_x = 0.,
(PID.TID 0000.0001) > STREAMICEthickInit='FILE',
(PID.TID 0000.0001) > STREAMICEthickFile='hinit666.box',
(PID.TID 0000.0001) ># STREAMICEthickFile='h0.bin',
(PID.TID 0000.0001) > STREAMICEtopogFile='bathy101.box',
(PID.TID 0000.0001) > STREAMICEuFaceBdryFile = 'ufacemask3.box',
(PID.TID 0000.0001) > STREAMICEvFaceBdryFile = 'vfacemask3.box',
(PID.TID 0000.0001) > STREAMICEvMassFluxFile='vmassflux3.box',
(PID.TID 0000.0001) ># STREAMICEvDirichValsFile='vdirich.box',
(PID.TID 0000.0001) > STREAMICEhmaskFile = 'hmask3.box',
(PID.TID 0000.0001) ># STREAMICEHBCyFile = 'HBCy.box',
(PID.TID 0000.0001) > STREAMICEbasalTracConfig='UNIFORM',
(PID.TID 0000.0001) > STREAMICEGlenConstConfig='UNIFORM',
(PID.TID 0000.0001) > STREAMICE_chkfixedptconvergence=.true.,
(PID.TID 0000.0001) > STREAMICE_chkresidconvergence=.false.,
(PID.TID 0000.0001) > streamice_buttr_width=55.e3,
(PID.TID 0000.0001) > useStreamiceFlowlineButtr=.true.,
(PID.TID 0000.0001) > /
(PID.TID 0000.0001) >
(PID.TID 0000.0001) > &STREAMICE_PARM02
(PID.TID 0000.0001) > shelf_max_draft = 1300.0,
(PID.TID 0000.0001) > shelf_min_draft = 300.0,
(PID.TID 0000.0001) > shelf_edge_pos = 70.0e3,
(PID.TID 0000.0001) > shelf_slope_scale = 62.0e3,
(PID.TID 0000.0001) > shelf_flat_width = 20.0e3,
(PID.TID 0000.0001) > /
(PID.TID 0000.0001) >
(PID.TID 0000.0001) ># &STREAMICE_PARMPETSC
(PID.TID 0000.0001) ># PETSC_SOLVER_TYPE = 'CG',
(PID.TID 0000.0001) ># PETSC_PRECOND_TYPE = 'GAMG',
(PID.TID 0000.0001) ># &
(PID.TID 0000.0001) >
(PID.TID 0000.0001) > &STREAMICE_PARM03
(PID.TID 0000.0001) > min_x_noflow_north = -200.0,
(PID.TID 0000.0001) > max_x_noflow_north = 0.0,
(PID.TID 0000.0001) > min_x_noflow_south = -200.0,
(PID.TID 0000.0001) > max_x_noflow_south = 0.0,
(PID.TID 0000.0001) > min_y_noflow_WEST = 0.0,
(PID.TID 0000.0001) > max_y_noflow_WEST = 0.0,
(PID.TID 0000.0001) > min_y_noflow_EAST = -180.0,
(PID.TID 0000.0001) > max_y_noflow_EAST = 0.0,
(PID.TID 0000.0001) > min_x_noStress_NORTH = 0.0e3,
(PID.TID 0000.0001) > max_x_noStress_NORTH = 0.0e3,
(PID.TID 0000.0001) > min_x_noStress_SOUTH = 0.0e3,
(PID.TID 0000.0001) > max_x_noStress_SOUTH = 0.0e3,
(PID.TID 0000.0001) > min_y_noStress_WEST = -1.0,
(PID.TID 0000.0001) > max_y_noStress_WEST = -1.0,
(PID.TID 0000.0001) > min_y_noStress_EAST = -1.0,
(PID.TID 0000.0001) > max_y_noStress_EAST = -1.0,
(PID.TID 0000.0001) > min_x_FluxBdry_NORTH = -1.0,
(PID.TID 0000.0001) > max_x_FluxBdry_NORTH = -1.0,
(PID.TID 0000.0001) > min_x_FluxBdry_SOUTH = -1.0,
(PID.TID 0000.0001) > max_x_FluxBdry_SOUTH = -1.0,
(PID.TID 0000.0001) > min_y_FluxBdry_WEST = 0.0,
(PID.TID 0000.0001) > max_y_FluxBdry_WEST = 0.0,
(PID.TID 0000.0001) > min_y_FluxBdry_EAST = -180.0,
(PID.TID 0000.0001) > max_y_FluxBdry_EAST = 0.0,
(PID.TID 0000.0001) > min_x_Dirich_NORTH = -1.0,
(PID.TID 0000.0001) > max_x_Dirich_NORTH = -1.0,
(PID.TID 0000.0001) > min_x_Dirich_SOUTH = -1.0,
(PID.TID 0000.0001) > max_x_Dirich_SOUTH = -1.0,
(PID.TID 0000.0001) > min_y_Dirich_WEST = -1.0,
(PID.TID 0000.0001) > max_y_Dirich_WEST = -1.0,
(PID.TID 0000.0001) > min_y_Dirich_EAST = -1.0,
(PID.TID 0000.0001) > max_y_Dirich_EAST = -1.0,
(PID.TID 0000.0001) > min_x_CFBC_NORTH = -1.0,
(PID.TID 0000.0001) > max_x_CFBC_NORTH = -1.0,
(PID.TID 0000.0001) > min_x_CFBC_SOUTH = -1.0,
(PID.TID 0000.0001) > max_x_CFBC_SOUTH = -1.0,
(PID.TID 0000.0001) > min_y_CFBC_WEST = -180.0,
(PID.TID 0000.0001) > max_y_CFBC_WEST = 0.0,
(PID.TID 0000.0001) > min_y_CFBC_EAST = 0.0,
(PID.TID 0000.0001) > max_y_CFBC_EAST = 0.0e3,
(PID.TID 0000.0001) > flux_bdry_val_EAST =1.5e6,
(PID.TID 0000.0001) > STREAMICE_NS_periodic = .false.,
(PID.TID 0000.0001) > STREAMICE_EW_periodic = .false.,
(PID.TID 0000.0001) > /
(PID.TID 0000.0001) 
(PID.TID 0000.0001) STREAMICE_READPARMS: read first param block
(PID.TID 0000.0001) STREAMICE_READPARMS: read third param block
(PID.TID 0000.0001) SET_PARMS: done
(PID.TID 0000.0001) Enter INI_VERTICAL_GRID: setInterFDr=    T ; setCenterDr=    F
(PID.TID 0000.0001) %MON XC_max                       =  -1.0518750000000E+02
(PID.TID 0000.0001) %MON XC_min                       =  -1.0543750000000E+02
(PID.TID 0000.0001) %MON XC_mean                      =  -1.0531250000000E+02
(PID.TID 0000.0001) %MON XC_sd                        =   1.0206207261597E-01
(PID.TID 0000.0001) %MON XG_max                       =  -1.0525000000000E+02
(PID.TID 0000.0001) %MON XG_min                       =  -1.0550000000000E+02
(PID.TID 0000.0001) %MON XG_mean                      =  -1.0537500000000E+02
(PID.TID 0000.0001) %MON XG_sd                        =   1.0206207261597E-01
(PID.TID 0000.0001) %MON DXC_max                      =   4.2195172956806E+03
(PID.TID 0000.0001) %MON DXC_min                      =   3.4932435587116E+03
(PID.TID 0000.0001) %MON DXC_mean                     =   3.8573295402684E+03
(PID.TID 0000.0001) %MON DXC_sd                       =   2.1019269529356E+02
(PID.TID 0000.0001) %MON DXF_max                      =   4.2195172956806E+03
(PID.TID 0000.0001) %MON DXF_min                      =   3.4932435587116E+03
(PID.TID 0000.0001) %MON DXF_mean                     =   3.8573295402684E+03
(PID.TID 0000.0001) %MON DXF_sd                       =   2.1019269529356E+02
(PID.TID 0000.0001) %MON DXG_max                      =   4.2186145466767E+03
(PID.TID 0000.0001) %MON DXG_min                      =   3.4923265038643E+03
(PID.TID 0000.0001) %MON DXG_mean                     =   3.8564194144023E+03
(PID.TID 0000.0001) %MON DXG_sd                       =   2.1019683536103E+02
(PID.TID 0000.0001) %MON DXV_max                      =   4.2186145466767E+03
(PID.TID 0000.0001) %MON DXV_min                      =   3.4923265038643E+03
(PID.TID 0000.0001) %MON DXV_mean                     =   3.8564194144023E+03
(PID.TID 0000.0001) %MON DXV_sd                       =   2.1019683536103E+02
(PID.TID 0000.0001) %MON YC_max                       =  -7.2324606250000E+01
(PID.TID 0000.0001) %MON YC_min                       =  -7.5441793750000E+01
(PID.TID 0000.0001) %MON YC_mean                      =  -7.3883199999998E+01
(PID.TID 0000.0001) %MON YC_sd                        =   9.0210697651127E-01
(PID.TID 0000.0001) %MON YG_max                       =  -7.2328512500000E+01
(PID.TID 0000.0001) %MON YG_min                       =  -7.5445700000000E+01
(PID.TID 0000.0001) %MON YG_mean                      =  -7.3887106249998E+01
(PID.TID 0000.0001) %MON YG_sd                        =   9.0210697651127E-01
(PID.TID 0000.0001) %MON DYC_max                      =   8.6857401056280E+02
(PID.TID 0000.0001) %MON DYC_min                      =   8.6857401056280E+02
(PID.TID 0000.0001) %MON DYC_mean                     =   8.6857401056282E+02
(PID.TID 0000.0001) %MON DYC_sd                       =   1.9554136088118E-11
(PID.TID 0000.0001) %MON DYF_max                      =   8.6857401056280E+02
(PID.TID 0000.0001) %MON DYF_min                      =   8.6857401056280E+02
(PID.TID 0000.0001) %MON DYF_mean                     =   8.6857401056282E+02
(PID.TID 0000.0001) %MON DYF_sd                       =   1.9554136088118E-11
(PID.TID 0000.0001) %MON DYG_max                      =   8.6857401056280E+02
(PID.TID 0000.0001) %MON DYG_min                      =   8.6857401056280E+02
(PID.TID 0000.0001) %MON DYG_mean                     =   8.6857401056282E+02
(PID.TID 0000.0001) %MON DYG_sd                       =   1.9554136088118E-11
(PID.TID 0000.0001) %MON DYU_max                      =   8.6857401056280E+02
(PID.TID 0000.0001) %MON DYU_min                      =   8.6857401056280E+02
(PID.TID 0000.0001) %MON DYU_mean                     =   8.6857401056282E+02
(PID.TID 0000.0001) %MON DYU_sd                       =   1.9554136088118E-11
(PID.TID 0000.0001) %MON RA_max                       =   3.6649630573121E+06
(PID.TID 0000.0001) %MON RA_min                       =   3.0341405653118E+06
(PID.TID 0000.0001) %MON RA_mean                      =   3.3503761862578E+06
(PID.TID 0000.0001) %MON RA_sd                        =   1.8256791220069E+05
(PID.TID 0000.0001) %MON RAW_max                      =   3.6649630573121E+06
(PID.TID 0000.0001) %MON RAW_min                      =   3.0341405653118E+06
(PID.TID 0000.0001) %MON RAW_mean                     =   3.3503761862578E+06
(PID.TID 0000.0001) %MON RAW_sd                       =   1.8256791220069E+05
(PID.TID 0000.0001) %MON RAS_max                      =   3.6641789529870E+06
(PID.TID 0000.0001) %MON RAS_min                      =   3.0333440353089E+06
(PID.TID 0000.0001) %MON RAS_mean                     =   3.3495856745848E+06
(PID.TID 0000.0001) %MON RAS_sd                       =   1.8257150815571E+05
(PID.TID 0000.0001) %MON RAZ_max                      =   3.6641789529870E+06
(PID.TID 0000.0001) %MON RAZ_min                      =   3.0333440353089E+06
(PID.TID 0000.0001) %MON RAZ_mean                     =   3.3495856745848E+06
(PID.TID 0000.0001) %MON RAZ_sd                       =   1.8257150815571E+05
(PID.TID 0000.0001) %MON AngleCS_max                  =   1.0000000000000E+00
(PID.TID 0000.0001) %MON AngleCS_min                  =   1.0000000000000E+00
(PID.TID 0000.0001) %MON AngleCS_mean                 =   1.0000000000000E+00
(PID.TID 0000.0001) %MON AngleCS_sd                   =   0.0000000000000E+00
(PID.TID 0000.0001) %MON AngleSN_max                  =   0.0000000000000E+00
(PID.TID 0000.0001) %MON AngleSN_min                  =   0.0000000000000E+00
(PID.TID 0000.0001) %MON AngleSN_mean                 =   0.0000000000000E+00
(PID.TID 0000.0001) %MON AngleSN_sd                   =   0.0000000000000E+00
(PID.TID 0000.0001) GAD_INIT_FIXED: GAD_OlMinSize=  2  0  1
(PID.TID 0000.0001) 
(PID.TID 0000.0001) // ===================================
(PID.TID 0000.0001) // GAD parameters :
(PID.TID 0000.0001) // ===================================
(PID.TID 0000.0001) tempAdvScheme =   /* Temp. Horiz.Advection scheme selector */
(PID.TID 0000.0001)                      30
(PID.TID 0000.0001)     ;
(PID.TID 0000.0001) tempVertAdvScheme =   /* Temp. Vert. Advection scheme selector */
(PID.TID 0000.0001)                      30
(PID.TID 0000.0001)     ;
(PID.TID 0000.0001) tempMultiDimAdvec =   /* use Muti-Dim Advec method for Temp */
(PID.TID 0000.0001)                   T
(PID.TID 0000.0001)     ;
(PID.TID 0000.0001) tempSOM_Advection = /* use 2nd Order Moment Advection for Temp */
(PID.TID 0000.0001)                   F
(PID.TID 0000.0001)     ;
(PID.TID 0000.0001) AdamsBashforthGt = /* apply Adams-Bashforth extrapolation on Gt */
(PID.TID 0000.0001)                   F
(PID.TID 0000.0001)     ;
(PID.TID 0000.0001) AdamsBashforth_T = /* apply Adams-Bashforth extrapolation on Temp */
(PID.TID 0000.0001)                   F
(PID.TID 0000.0001)     ;
(PID.TID 0000.0001) saltAdvScheme =   /* Salt. Horiz.advection scheme selector */
(PID.TID 0000.0001)                      30
(PID.TID 0000.0001)     ;
(PID.TID 0000.0001) saltVertAdvScheme =   /* Salt. Vert. Advection scheme selector */
(PID.TID 0000.0001)                      30
(PID.TID 0000.0001)     ;
(PID.TID 0000.0001) saltMultiDimAdvec =   /* use Muti-Dim Advec method for Salt */
(PID.TID 0000.0001)                   T
(PID.TID 0000.0001)     ;
(PID.TID 0000.0001) saltSOM_Advection = /* use 2nd Order Moment Advection for Salt */
(PID.TID 0000.0001)                   F
(PID.TID 0000.0001)     ;
(PID.TID 0000.0001) AdamsBashforthGs = /* apply Adams-Bashforth extrapolation on Gs */
(PID.TID 0000.0001)                   F
(PID.TID 0000.0001)     ;
(PID.TID 0000.0001) AdamsBashforth_S = /* apply Adams-Bashforth extrapolation on Salt */
(PID.TID 0000.0001)                   F
(PID.TID 0000.0001)     ;
(PID.TID 0000.0001) // ===================================
(PID.TID 0000.0001) %MON fCori_max                    =   0.0000000000000E+00
(PID.TID 0000.0001) %MON fCori_min                    =   0.0000000000000E+00
(PID.TID 0000.0001) %MON fCori_mean                   =   0.0000000000000E+00
(PID.TID 0000.0001) %MON fCori_sd                     =   0.0000000000000E+00
(PID.TID 0000.0001) %MON fCoriG_max                   =   0.0000000000000E+00
(PID.TID 0000.0001) %MON fCoriG_min                   =   0.0000000000000E+00
(PID.TID 0000.0001) %MON fCoriG_mean                  =   0.0000000000000E+00
(PID.TID 0000.0001) %MON fCoriG_sd                    =   0.0000000000000E+00
(PID.TID 0000.0001) %MON fCoriCos_max                 =   0.0000000000000E+00
(PID.TID 0000.0001) %MON fCoriCos_min                 =   0.0000000000000E+00
(PID.TID 0000.0001) %MON fCoriCos_mean                =   0.0000000000000E+00
(PID.TID 0000.0001) %MON fCoriCos_sd                  =   0.0000000000000E+00
(PID.TID 0000.0001) INI_CG2D: CG2D normalisation factor =  2.0597897904647066E-04
(PID.TID 0000.0001) 
(PID.TID 0000.0001) // =======================================================
(PID.TID 0000.0001) // Model configuration
(PID.TID 0000.0001) // =======================================================
(PID.TID 0000.0001) //
(PID.TID 0000.0001) // "Physical" paramters ( PARM01 in namelist )
(PID.TID 0000.0001) //
(PID.TID 0000.0001) buoyancyRelation = /* Type of relation to get Buoyancy */
(PID.TID 0000.0001)               'OCEANIC'
(PID.TID 0000.0001)     ;
(PID.TID 0000.0001) fluidIsAir   =  /* fluid major constituent is Air */
(PID.TID 0000.0001)                   F
(PID.TID 0000.0001)     ;
(PID.TID 0000.0001) fluidIsWater =  /* fluid major constituent is Water */
(PID.TID 0000.0001)                   T
(PID.TID 0000.0001)     ;
(PID.TID 0000.0001) usingPCoords =  /* use p (or p*) vertical coordinate */
(PID.TID 0000.0001)                   F
(PID.TID 0000.0001)     ;
(PID.TID 0000.0001) usingZCoords =  /* use z (or z*) vertical coordinate */
(PID.TID 0000.0001)                   T
(PID.TID 0000.0001)     ;
(PID.TID 0000.0001) tRef =   /* Reference temperature profile ( oC or K ) */
(PID.TID 0000.0001)   130 @ -1.900000000000000E+00              /* K =  1:130 */
(PID.TID 0000.0001)     ;
(PID.TID 0000.0001) sRef =   /* Reference salinity profile ( psu ) */
(PID.TID 0000.0001)   130 @  3.440000000000000E+01              /* K =  1:130 */
(PID.TID 0000.0001)     ;
(PID.TID 0000.0001) useStrainTensionVisc= /* Use StrainTension Form of Viscous Operator */
(PID.TID 0000.0001)                   F
(PID.TID 0000.0001)     ;
(PID.TID 0000.0001) useVariableVisc = /* Use variable horizontal viscosity */
(PID.TID 0000.0001)                   T
(PID.TID 0000.0001)     ;
(PID.TID 0000.0001) useHarmonicVisc = /* Use harmonic horizontal viscosity */
(PID.TID 0000.0001)                   T
(PID.TID 0000.0001)     ;
(PID.TID 0000.0001) useBiharmonicVisc= /* Use biharmonic horiz.  viscosity */
(PID.TID 0000.0001)                   T
(PID.TID 0000.0001)     ;
(PID.TID 0000.0001) useSmag3D = /* Use isotropic 3-D Smagorinsky viscosity */
(PID.TID 0000.0001)                   F
(PID.TID 0000.0001)     ;
(PID.TID 0000.0001) viscAh  =   /* Lateral harmonic viscosity ( m^2/s ) */
(PID.TID 0000.0001)                 0.000000000000000E+00
(PID.TID 0000.0001)     ;
(PID.TID 0000.0001) viscAhMax = /* Maximum lateral harmonic viscosity ( m^2/s ) */
(PID.TID 0000.0001)                 1.000000000000000E+21
(PID.TID 0000.0001)     ;
(PID.TID 0000.0001) viscAhGrid = /* Grid dependent lateral harmonic viscosity ( non-dim. ) */
(PID.TID 0000.0001)                 2.000000000000000E-01
(PID.TID 0000.0001)     ;
(PID.TID 0000.0001) useFullLeith = /* Use Full Form of Leith Viscosity on/off flag*/
(PID.TID 0000.0001)                   F
(PID.TID 0000.0001)     ;
(PID.TID 0000.0001) useAreaViscLength = /* Use area for visc length instead of geom. mean*/
(PID.TID 0000.0001)                   F
(PID.TID 0000.0001)     ;
(PID.TID 0000.0001) viscC2leith = /* Leith harmonic visc. factor (on grad(vort),non-dim.) */
(PID.TID 0000.0001)                 0.000000000000000E+00
(PID.TID 0000.0001)     ;
(PID.TID 0000.0001) viscC2leithD = /* Leith harmonic viscosity factor (on grad(div),non-dim.)*/
(PID.TID 0000.0001)                 0.000000000000000E+00
(PID.TID 0000.0001)     ;
(PID.TID 0000.0001) viscC2smag = /* Smagorinsky harmonic viscosity factor (non-dim.) */
(PID.TID 0000.0001)                 0.000000000000000E+00
(PID.TID 0000.0001)     ;
(PID.TID 0000.0001) viscA4  =   /* Lateral biharmonic viscosity ( m^4/s ) */
(PID.TID 0000.0001)                 0.000000000000000E+00
(PID.TID 0000.0001)     ;
(PID.TID 0000.0001) viscA4Max = /* Maximum biharmonic viscosity ( m^2/s ) */
(PID.TID 0000.0001)                 1.000000000000000E+21
(PID.TID 0000.0001)     ;
(PID.TID 0000.0001) viscA4Grid = /* Grid dependent biharmonic viscosity ( non-dim. ) */
(PID.TID 0000.0001)                 2.000000000000000E-02
(PID.TID 0000.0001)     ;
(PID.TID 0000.0001) viscC4leith = /* Leith biharm viscosity factor (on grad(vort), non-dim.)*/
(PID.TID 0000.0001)                 0.000000000000000E+00
(PID.TID 0000.0001)     ;
(PID.TID 0000.0001) viscC4leithD = /* Leith biharm viscosity factor (on grad(div), non-dim.) */
(PID.TID 0000.0001)                 0.000000000000000E+00
(PID.TID 0000.0001)     ;
(PID.TID 0000.0001) viscC4Smag = /* Smagorinsky biharm viscosity factor (non-dim) */
(PID.TID 0000.0001)                 0.000000000000000E+00
(PID.TID 0000.0001)     ;
(PID.TID 0000.0001) no_slip_sides =  /* Viscous BCs: No-slip sides */
(PID.TID 0000.0001)                   F
(PID.TID 0000.0001)     ;
(PID.TID 0000.0001) sideDragFactor = /* side-drag scaling factor (non-dim) */
(PID.TID 0000.0001)                 2.000000000000000E+00
(PID.TID 0000.0001)     ;
(PID.TID 0000.0001) viscArNr = /* vertical profile of vertical viscosity ( m^2/s )*/
(PID.TID 0000.0001)   130 @  1.000000000000000E-03              /* K =  1:130 */
(PID.TID 0000.0001)     ;
(PID.TID 0000.0001) no_slip_bottom =  /* Viscous BCs: No-slip bottom */
(PID.TID 0000.0001)                   F
(PID.TID 0000.0001)     ;
(PID.TID 0000.0001) bottomVisc_pCell = /* Partial-cell in bottom Visc. BC */
(PID.TID 0000.0001)                   F
(PID.TID 0000.0001)     ;
(PID.TID 0000.0001) bottomDragLinear = /* linear bottom-drag coefficient ( m/s ) */
(PID.TID 0000.0001)                 0.000000000000000E+00
(PID.TID 0000.0001)     ;
(PID.TID 0000.0001) bottomDragQuadratic = /* quadratic bottom-drag coefficient (-) */
(PID.TID 0000.0001)                 2.500000000000000E-03
(PID.TID 0000.0001)     ;
(PID.TID 0000.0001) selectBotDragQuadr = /* select quadratic bottom drag options */
(PID.TID 0000.0001)                       0
(PID.TID 0000.0001)     ;
(PID.TID 0000.0001) diffKhT =   /* Laplacian diffusion of heat laterally ( m^2/s ) */
(PID.TID 0000.0001)                 1.000000000000000E+02
(PID.TID 0000.0001)     ;
(PID.TID 0000.0001) diffK4T =   /* Biharmonic diffusion of heat laterally ( m^4/s ) */
(PID.TID 0000.0001)                 0.000000000000000E+00
(PID.TID 0000.0001)     ;
(PID.TID 0000.0001) diffKhS =   /* Laplacian diffusion of salt laterally ( m^2/s ) */
(PID.TID 0000.0001)                 1.000000000000000E+02
(PID.TID 0000.0001)     ;
(PID.TID 0000.0001) diffK4S =   /* Biharmonic diffusion of salt laterally ( m^4/s ) */
(PID.TID 0000.0001)                 0.000000000000000E+00
(PID.TID 0000.0001)     ;
(PID.TID 0000.0001) diffKrNrT = /* vertical profile of vertical diffusion of Temp ( m^2/s )*/
(PID.TID 0000.0001)   130 @  5.000000000000000E-05              /* K =  1:130 */
(PID.TID 0000.0001)     ;
(PID.TID 0000.0001) diffKrNrS = /* vertical profile of vertical diffusion of Salt ( m^2/s )*/
(PID.TID 0000.0001)   130 @  5.000000000000000E-05              /* K =  1:130 */
(PID.TID 0000.0001)     ;
(PID.TID 0000.0001) diffKrBL79surf = /* Surface diffusion for Bryan and Lewis 79 ( m^2/s ) */
(PID.TID 0000.0001)                 0.000000000000000E+00
(PID.TID 0000.0001)     ;
(PID.TID 0000.0001) diffKrBL79deep = /* Deep diffusion for Bryan and Lewis 1979 ( m^2/s ) */
(PID.TID 0000.0001)                 0.000000000000000E+00
(PID.TID 0000.0001)     ;
(PID.TID 0000.0001) diffKrBL79scl = /* Depth scale for Bryan and Lewis 1979 ( m ) */
(PID.TID 0000.0001)                 2.000000000000000E+02
(PID.TID 0000.0001)     ;
(PID.TID 0000.0001) diffKrBL79Ho = /* Turning depth for Bryan and Lewis 1979 ( m ) */
(PID.TID 0000.0001)                -2.000000000000000E+03
(PID.TID 0000.0001)     ;
(PID.TID 0000.0001) ivdc_kappa = /* Implicit Vertical Diffusivity for Convection ( m^2/s) */
(PID.TID 0000.0001)                 0.000000000000000E+00
(PID.TID 0000.0001)     ;
(PID.TID 0000.0001) hMixCriteria=  /* Criteria for mixed-layer diagnostic */
(PID.TID 0000.0001)                -8.000000000000000E-01
(PID.TID 0000.0001)     ;
(PID.TID 0000.0001) dRhoSmall =  /* Parameter for mixed-layer diagnostic */
(PID.TID 0000.0001)                 1.000000000000000E-06
(PID.TID 0000.0001)     ;
(PID.TID 0000.0001) hMixSmooth=  /* Smoothing parameter for mixed-layer diagnostic */
(PID.TID 0000.0001)                 0.000000000000000E+00
(PID.TID 0000.0001)     ;
(PID.TID 0000.0001) eosType =  /* Type of Equation of State */
(PID.TID 0000.0001)               'JMD95Z'
(PID.TID 0000.0001)     ;
(PID.TID 0000.0001) selectP_inEOS_Zc = /* select pressure to use in EOS (0,1,2,3) */
(PID.TID 0000.0001)                       0
(PID.TID 0000.0001)     0= -g*rhoConst*z ; 1= pRef (from tRef,sRef); 2= Hyd P ; 3= Hyd+NH P
(PID.TID 0000.0001)     ;
(PID.TID 0000.0001) HeatCapacity_Cp =  /* Specific heat capacity ( J/kg/K ) */
(PID.TID 0000.0001)                 3.974000000000000E+03
(PID.TID 0000.0001)     ;
(PID.TID 0000.0001) celsius2K = /* 0 degree Celsius converted to Kelvin ( K ) */
(PID.TID 0000.0001)                 2.731500000000000E+02
(PID.TID 0000.0001)     ;
(PID.TID 0000.0001) rhoConst  = /* Reference density (Boussinesq)  ( kg/m^3 ) */
(PID.TID 0000.0001)                 1.000000000000000E+03
(PID.TID 0000.0001)     ;
(PID.TID 0000.0001) rhoFacC = /* normalized Reference density @ cell-Center (-) */
(PID.TID 0000.0001)   130 @  1.000000000000000E+00              /* K =  1:130 */
(PID.TID 0000.0001)     ;
(PID.TID 0000.0001) rhoFacF = /* normalized Reference density @ W-Interface (-) */
(PID.TID 0000.0001)   131 @  1.000000000000000E+00              /* K =  1:131 */
(PID.TID 0000.0001)     ;
(PID.TID 0000.0001) rhoConstFresh = /* Fresh-water reference density ( kg/m^3 ) */
(PID.TID 0000.0001)                 1.000000000000000E+03
(PID.TID 0000.0001)     ;
(PID.TID 0000.0001) gravity =   /* Gravitational acceleration ( m/s^2 ) */
(PID.TID 0000.0001)                 9.810000000000000E+00
(PID.TID 0000.0001)     ;
(PID.TID 0000.0001) gBaro =   /* Barotropic gravity ( m/s^2 ) */
(PID.TID 0000.0001)                 9.810000000000000E+00
(PID.TID 0000.0001)     ;
(PID.TID 0000.0001) gravFacC = /* gravity factor (vs surf.) @ cell-Center (-) */
(PID.TID 0000.0001)   130 @  1.000000000000000E+00              /* K =  1:130 */
(PID.TID 0000.0001)     ;
(PID.TID 0000.0001) gravFacF = /* gravity factor (vs surf.) @ W-Interface (-) */
(PID.TID 0000.0001)   131 @  1.000000000000000E+00              /* K =  1:131 */
(PID.TID 0000.0001)     ;
(PID.TID 0000.0001) rotationPeriod =   /* Rotation Period ( s ) */
(PID.TID 0000.0001)                 8.616400000000000E+04
(PID.TID 0000.0001)     ;
(PID.TID 0000.0001) omega =   /* Angular velocity ( rad/s ) */
(PID.TID 0000.0001)                 7.292123516990375E-05
(PID.TID 0000.0001)     ;
(PID.TID 0000.0001) f0 =   /* Reference coriolis parameter ( 1/s ) */
(PID.TID 0000.0001)                 0.000000000000000E+00
(PID.TID 0000.0001)     ;
(PID.TID 0000.0001) beta =   /* Beta ( 1/(m.s) ) */
(PID.TID 0000.0001)                 9.999999999999999E-12
(PID.TID 0000.0001)     ;
(PID.TID 0000.0001) fPrime =   /* Second coriolis parameter ( 1/s ) */
(PID.TID 0000.0001)                 0.000000000000000E+00
(PID.TID 0000.0001)     ;
(PID.TID 0000.0001) rigidLid =   /* Rigid lid on/off flag */
(PID.TID 0000.0001)                   F
(PID.TID 0000.0001)     ;
(PID.TID 0000.0001) implicitFreeSurface =   /* Implicit free surface on/off flag */
(PID.TID 0000.0001)                   T
(PID.TID 0000.0001)     ;
(PID.TID 0000.0001) freeSurfFac =   /* Implicit free surface factor */
(PID.TID 0000.0001)                 1.000000000000000E+00
(PID.TID 0000.0001)     ;
(PID.TID 0000.0001) implicSurfPress =  /* Surface Pressure implicit factor (0-1)*/
(PID.TID 0000.0001)                 1.000000000000000E+00
(PID.TID 0000.0001)     ;
(PID.TID 0000.0001) implicDiv2Dflow =  /* Barot. Flow Div. implicit factor (0-1)*/
(PID.TID 0000.0001)                 1.000000000000000E+00
(PID.TID 0000.0001)     ;
(PID.TID 0000.0001) uniformLin_PhiSurf = /* use uniform Bo_surf on/off flag*/
(PID.TID 0000.0001)                   T
(PID.TID 0000.0001)     ;
(PID.TID 0000.0001) uniformFreeSurfLev = /* free-surface level-index is uniform */
(PID.TID 0000.0001)                   F
(PID.TID 0000.0001)     ;
(PID.TID 0000.0001) hFacMin =   /* minimum partial cell factor (hFac) */
(PID.TID 0000.0001)                 2.000000000000000E-01
(PID.TID 0000.0001)     ;
(PID.TID 0000.0001) hFacMinDr = /* minimum partial cell thickness ( m) */
(PID.TID 0000.0001)                 0.000000000000000E+00
(PID.TID 0000.0001)     ;
(PID.TID 0000.0001) exactConserv =  /* Exact Volume Conservation on/off flag*/
(PID.TID 0000.0001)                   T
(PID.TID 0000.0001)     ;
(PID.TID 0000.0001) linFSConserveTr = /* Tracer correction for Lin Free Surface on/off flag*/
(PID.TID 0000.0001)                   F
(PID.TID 0000.0001)     ;
(PID.TID 0000.0001) nonlinFreeSurf = /* Non-linear Free Surf. options (-1,0,1,2,3)*/
(PID.TID 0000.0001)                       4
(PID.TID 0000.0001)      -1,0= Off ; 1,2,3= On, 2=+rescale gU,gV, 3=+update cg2d solv.
(PID.TID 0000.0001)     ;
(PID.TID 0000.0001) hFacInf =   /* lower threshold for hFac (nonlinFreeSurf only)*/
(PID.TID 0000.0001)                 2.000000000000000E-01
(PID.TID 0000.0001)     ;
(PID.TID 0000.0001) hFacSup =   /* upper threshold for hFac (nonlinFreeSurf only)*/
(PID.TID 0000.0001)                 2.000000000000000E+00
(PID.TID 0000.0001)     ;
(PID.TID 0000.0001) select_rStar = /* r* Vertical coord. options (=0 r coord.; >0 uses r*)*/
(PID.TID 0000.0001)                       0
(PID.TID 0000.0001)     ;
(PID.TID 0000.0001) useRealFreshWaterFlux = /* Real Fresh Water Flux on/off flag*/
(PID.TID 0000.0001)                   T
(PID.TID 0000.0001)     ;
(PID.TID 0000.0001) temp_EvPrRn = /* Temp. of Evap/Prec/R (UNSET=use local T)(oC)*/
(PID.TID 0000.0001)                 1.234567000000000E+05
(PID.TID 0000.0001)     ;
(PID.TID 0000.0001) salt_EvPrRn = /* Salin. of Evap/Prec/R (UNSET=use local S)(psu)*/
(PID.TID 0000.0001)                 0.000000000000000E+00
(PID.TID 0000.0001)     ;
(PID.TID 0000.0001) selectAddFluid = /* option for mass source/sink of fluid (=0: off) */
(PID.TID 0000.0001)                       0
(PID.TID 0000.0001)     ;
(PID.TID 0000.0001) temp_addMass = /* Temp. of addMass array (UNSET=use local T)(oC)*/
(PID.TID 0000.0001)                 1.234567000000000E+05
(PID.TID 0000.0001)     ;
(PID.TID 0000.0001) salt_addMass = /* Salin. of addMass array (UNSET=use local S)(psu)*/
(PID.TID 0000.0001)                 0.000000000000000E+00
(PID.TID 0000.0001)     ;
(PID.TID 0000.0001) use3Dsolver = /* use 3-D pressure solver on/off flag */
(PID.TID 0000.0001)                   F
(PID.TID 0000.0001)     ;
(PID.TID 0000.0001) nonHydrostatic =  /* Non-Hydrostatic on/off flag */
(PID.TID 0000.0001)                   F
(PID.TID 0000.0001)     ;
(PID.TID 0000.0001) nh_Am2 = /* Non-Hydrostatic terms scaling factor */
(PID.TID 0000.0001)                 1.000000000000000E+00
(PID.TID 0000.0001)     ;
(PID.TID 0000.0001) implicitNHPress = /* Non-Hyd Pressure implicit factor (0-1)*/
(PID.TID 0000.0001)                 1.000000000000000E+00
(PID.TID 0000.0001)     ;
(PID.TID 0000.0001) selectNHfreeSurf = /* Non-Hyd (free-)Surface option */
(PID.TID 0000.0001)                       0
(PID.TID 0000.0001)     ;
(PID.TID 0000.0001) quasiHydrostatic = /* Quasi-Hydrostatic on/off flag */
(PID.TID 0000.0001)                   F
(PID.TID 0000.0001)     ;
(PID.TID 0000.0001) calc_wVelocity = /* vertical velocity calculation on/off flag */
(PID.TID 0000.0001)                   T
(PID.TID 0000.0001)     ;
(PID.TID 0000.0001) momStepping =  /* Momentum equation on/off flag */
(PID.TID 0000.0001)                   T
(PID.TID 0000.0001)     ;
(PID.TID 0000.0001) vectorInvariantMomentum= /* Vector-Invariant Momentum on/off */
(PID.TID 0000.0001)                   T
(PID.TID 0000.0001)     ;
(PID.TID 0000.0001) momAdvection =  /* Momentum advection on/off flag */
(PID.TID 0000.0001)                   T
(PID.TID 0000.0001)     ;
(PID.TID 0000.0001) momViscosity =  /* Momentum viscosity on/off flag */
(PID.TID 0000.0001)                   T
(PID.TID 0000.0001)     ;
(PID.TID 0000.0001) momImplVertAdv= /* Momentum implicit vert. advection on/off*/
(PID.TID 0000.0001)                   F
(PID.TID 0000.0001)     ;
(PID.TID 0000.0001) implicitViscosity = /* Implicit viscosity on/off flag */
(PID.TID 0000.0001)                   T
(PID.TID 0000.0001)     ;
(PID.TID 0000.0001) implBottomFriction= /* Implicit bottom friction on/off flag */
(PID.TID 0000.0001)                   F
(PID.TID 0000.0001)     ;
(PID.TID 0000.0001) metricTerms =  /* metric-Terms on/off flag */
(PID.TID 0000.0001)                   T
(PID.TID 0000.0001)     ;
(PID.TID 0000.0001) useNHMTerms = /* Non-Hydrostatic Metric-Terms on/off */
(PID.TID 0000.0001)                   F
(PID.TID 0000.0001)     ;
(PID.TID 0000.0001) selectCoriMap = /* Coriolis Map options (0,1,2,3)*/
(PID.TID 0000.0001)                       0
(PID.TID 0000.0001)     0= f-Plane ; 1= Beta-Plane ; 2= Spherical ; 3= read from file
(PID.TID 0000.0001)     ;
(PID.TID 0000.0001) use3dCoriolis = /* 3-D Coriolis on/off flag */
(PID.TID 0000.0001)                   F
(PID.TID 0000.0001)     ;
(PID.TID 0000.0001) useCoriolis =  /* Coriolis on/off flag */
(PID.TID 0000.0001)                   T
(PID.TID 0000.0001)     ;
(PID.TID 0000.0001) useCDscheme =  /* CD scheme on/off flag */
(PID.TID 0000.0001)                   F
(PID.TID 0000.0001)     ;
(PID.TID 0000.0001) useEnergyConservingCoriolis= /* Flx-Form Coriolis scheme flag */
(PID.TID 0000.0001)                   F
(PID.TID 0000.0001)     ;
(PID.TID 0000.0001) useJamartWetPoints= /* Coriolis WetPoints method flag */
(PID.TID 0000.0001)                   F
(PID.TID 0000.0001)     ;
(PID.TID 0000.0001) useJamartMomAdv= /* V.I Non-linear terms Jamart flag */
(PID.TID 0000.0001)                   F
(PID.TID 0000.0001)     ;
(PID.TID 0000.0001) useAbsVorticity= /* V.I Works with f+zeta in Coriolis */
(PID.TID 0000.0001)                   F
(PID.TID 0000.0001)     ;
(PID.TID 0000.0001) selectVortScheme= /* V.I Scheme selector for Vorticity-Term */
(PID.TID 0000.0001)                       1
(PID.TID 0000.0001)    = 0 : enstrophy (Shallow-Water Eq.) conserving scheme by Sadourny, JAS 75
(PID.TID 0000.0001)    = 1 : same as 0 with modified hFac
(PID.TID 0000.0001)    = 2 : energy conserving scheme (used by Sadourny in JAS 75 paper)
(PID.TID 0000.0001)    = 3 : energy (general) and enstrophy (2D, nonDiv.) conserving scheme
(PID.TID 0000.0001)          from Sadourny (Burridge & Haseler, ECMWF Rep.4, 1977)
(PID.TID 0000.0001)     ;
(PID.TID 0000.0001) upwindVorticity= /* V.I Upwind bias vorticity flag */
(PID.TID 0000.0001)                   F
(PID.TID 0000.0001)     ;
(PID.TID 0000.0001) highOrderVorticity= /* V.I High order vort. advect. flag */
(PID.TID 0000.0001)                   F
(PID.TID 0000.0001)     ;
(PID.TID 0000.0001) upwindShear= /* V.I Upwind vertical Shear advection flag */
(PID.TID 0000.0001)                   F
(PID.TID 0000.0001)     ;
(PID.TID 0000.0001) selectKEscheme= /* V.I Kinetic Energy scheme selector */
(PID.TID 0000.0001)                       0
(PID.TID 0000.0001)     ;
(PID.TID 0000.0001) momForcing =  /* Momentum forcing on/off flag */
(PID.TID 0000.0001)                   T
(PID.TID 0000.0001)     ;
(PID.TID 0000.0001) momPressureForcing =  /* Momentum pressure term on/off flag */
(PID.TID 0000.0001)                   T
(PID.TID 0000.0001)     ;
(PID.TID 0000.0001) implicitIntGravWave= /* Implicit Internal Gravity Wave flag */
(PID.TID 0000.0001)                   F
(PID.TID 0000.0001)     ;
(PID.TID 0000.0001) staggerTimeStep =    /* Stagger time stepping on/off flag */
(PID.TID 0000.0001)                   T
(PID.TID 0000.0001)     ;
(PID.TID 0000.0001) doResetHFactors = /* reset thickness factors @ each time-step */
(PID.TID 0000.0001)                   F
(PID.TID 0000.0001)     ;
(PID.TID 0000.0001) multiDimAdvection =  /* enable/disable Multi-Dim Advection */
(PID.TID 0000.0001)                   T
(PID.TID 0000.0001)     ;
(PID.TID 0000.0001) useMultiDimAdvec =   /* Multi-Dim Advection is/is-not used */
(PID.TID 0000.0001)                   T
(PID.TID 0000.0001)     ;
(PID.TID 0000.0001) implicitDiffusion = /* Implicit Diffusion on/off flag */
(PID.TID 0000.0001)                   T
(PID.TID 0000.0001)     ;
(PID.TID 0000.0001) tempStepping =  /* Temperature equation on/off flag */
(PID.TID 0000.0001)                   T
(PID.TID 0000.0001)     ;
(PID.TID 0000.0001) tempAdvection = /* Temperature advection on/off flag */
(PID.TID 0000.0001)                   T
(PID.TID 0000.0001)     ;
(PID.TID 0000.0001) tempImplVertAdv = /* Temp. implicit vert. advection on/off */
(PID.TID 0000.0001)                   T
(PID.TID 0000.0001)     ;
(PID.TID 0000.0001) tempForcing  =  /* Temperature forcing on/off flag */
(PID.TID 0000.0001)                   T
(PID.TID 0000.0001)     ;
(PID.TID 0000.0001) doThetaClimRelax = /* apply SST relaxation on/off flag */
(PID.TID 0000.0001)                   F
(PID.TID 0000.0001)     ;
(PID.TID 0000.0001) tempIsActiveTr = /* Temp. is a dynamically Active Tracer */
(PID.TID 0000.0001)                   T
(PID.TID 0000.0001)     ;
(PID.TID 0000.0001) saltStepping =  /* Salinity equation on/off flag */
(PID.TID 0000.0001)                   T
(PID.TID 0000.0001)     ;
(PID.TID 0000.0001) saltAdvection = /* Salinity advection on/off flag */
(PID.TID 0000.0001)                   T
(PID.TID 0000.0001)     ;
(PID.TID 0000.0001) saltImplVertAdv = /* Sali. implicit vert. advection on/off */
(PID.TID 0000.0001)                   T
(PID.TID 0000.0001)     ;
(PID.TID 0000.0001) saltForcing  =  /* Salinity forcing on/off flag */
(PID.TID 0000.0001)                   T
(PID.TID 0000.0001)     ;
(PID.TID 0000.0001) doSaltClimRelax = /* apply SSS relaxation on/off flag */
(PID.TID 0000.0001)                   F
(PID.TID 0000.0001)     ;
(PID.TID 0000.0001) saltIsActiveTr = /* Salt  is a dynamically Active Tracer */
(PID.TID 0000.0001)                   T
(PID.TID 0000.0001)     ;
(PID.TID 0000.0001)  readBinaryPrec = /* Precision used for reading binary files */
(PID.TID 0000.0001)                      64
(PID.TID 0000.0001)     ;
(PID.TID 0000.0001) writeBinaryPrec = /* Precision used for writing binary files */
(PID.TID 0000.0001)                      32
(PID.TID 0000.0001)     ;
(PID.TID 0000.0001)  globalFiles = /* write "global" (=not per tile) files */
(PID.TID 0000.0001)                   T
(PID.TID 0000.0001)     ;
(PID.TID 0000.0001)  useSingleCpuIO = /* only master MPI process does I/O */
(PID.TID 0000.0001)                   T
(PID.TID 0000.0001)     ;
(PID.TID 0000.0001)  useSingleCpuInput = /* only master process reads input */
(PID.TID 0000.0001)                   T
(PID.TID 0000.0001)     ;
(PID.TID 0000.0001) /* debLev[*]  : level of debug & auxiliary message printing */
(PID.TID 0000.0001) debLevZero =  0 ; /* level of disabled aux. msg printing */
(PID.TID 0000.0001)    debLevA =  1 ; /* level of minimum  aux. msg printing */
(PID.TID 0000.0001)    debLevB =  2 ; /* level of low aux. print (report read-file opening)*/
(PID.TID 0000.0001)    debLevC =  3 ; /* level of moderate debug prt (most pkgs debug msg) */
(PID.TID 0000.0001)    debLevD =  4 ; /* level of enhanced debug prt (add DEBUG_STATS prt) */
(PID.TID 0000.0001)    debLevE =  5 ; /* level of extensive debug printing */
(PID.TID 0000.0001) debugLevel =  /* select debug printing level */
(PID.TID 0000.0001)                       1
(PID.TID 0000.0001)     ;
(PID.TID 0000.0001) //
(PID.TID 0000.0001) // Elliptic solver(s) paramters ( PARM02 in namelist )
(PID.TID 0000.0001) //
(PID.TID 0000.0001) cg2dMaxIters =   /* Upper limit on 2d con. grad iterations  */
(PID.TID 0000.0001)                     300
(PID.TID 0000.0001)     ;
(PID.TID 0000.0001) cg2dChkResFreq =   /* 2d con. grad convergence test frequency */
(PID.TID 0000.0001)                       1
(PID.TID 0000.0001)     ;
(PID.TID 0000.0001) cg2dUseMinResSol= /* use cg2d last-iter(=0) / min-resid.(=1) solution */
(PID.TID 0000.0001)                       0
(PID.TID 0000.0001)     ;
(PID.TID 0000.0001) cg2dTargetResidual =   /* 2d con. grad target residual  */
(PID.TID 0000.0001)                 9.999999999999999E-12
(PID.TID 0000.0001)     ;
(PID.TID 0000.0001) cg2dTargetResWunit =   /* CG2d target residual [W units] */
(PID.TID 0000.0001)                -1.000000000000000E+00
(PID.TID 0000.0001)     ;
(PID.TID 0000.0001) cg2dPreCondFreq =   /* Freq. for updating cg2d preconditioner */
(PID.TID 0000.0001)                       1
(PID.TID 0000.0001)     ;
(PID.TID 0000.0001) useSRCGSolver =  /* use single reduction CG solver(s) */
(PID.TID 0000.0001)                   F
(PID.TID 0000.0001)     ;
(PID.TID 0000.0001) printResidualFreq = /* Freq. for printing CG residual */
(PID.TID 0000.0001)                       0
(PID.TID 0000.0001)     ;
(PID.TID 0000.0001) //
(PID.TID 0000.0001) // Time stepping paramters ( PARM03 in namelist )
(PID.TID 0000.0001) //
(PID.TID 0000.0001) deltaTMom =   /* Momentum equation timestep ( s ) */
(PID.TID 0000.0001)                 3.000000000000000E+02
(PID.TID 0000.0001)     ;
(PID.TID 0000.0001) deltaTFreeSurf = /* FreeSurface equation timestep ( s ) */
(PID.TID 0000.0001)                 3.000000000000000E+02
(PID.TID 0000.0001)     ;
(PID.TID 0000.0001) dTtracerLev =  /* Tracer equation timestep ( s ) */
(PID.TID 0000.0001)   130 @  3.000000000000000E+02              /* K =  1:130 */
(PID.TID 0000.0001)     ;
(PID.TID 0000.0001) deltaTClock  =   /* Model clock timestep ( s ) */
(PID.TID 0000.0001)                 3.000000000000000E+02
(PID.TID 0000.0001)     ;
(PID.TID 0000.0001) cAdjFreq =   /* Convective adjustment interval ( s ) */
(PID.TID 0000.0001)                 3.000000000000000E+02
(PID.TID 0000.0001)     ;
(PID.TID 0000.0001) momForcingOutAB = /* =1: take Momentum Forcing out of Adams-Bash. stepping */
(PID.TID 0000.0001)                       1
(PID.TID 0000.0001)     ;
(PID.TID 0000.0001) tracForcingOutAB = /* =1: take T,S,pTr Forcing out of Adams-Bash. stepping */
(PID.TID 0000.0001)                       1
(PID.TID 0000.0001)     ;
(PID.TID 0000.0001) momDissip_In_AB = /* put Dissipation Tendency in Adams-Bash. stepping */
(PID.TID 0000.0001)                   T
(PID.TID 0000.0001)     ;
(PID.TID 0000.0001) doAB_onGtGs = /* apply AB on Tendencies (rather than on T,S)*/
(PID.TID 0000.0001)                   T
(PID.TID 0000.0001)     ;
(PID.TID 0000.0001) abEps =   /* Adams-Bashforth-2 stabilizing weight */
(PID.TID 0000.0001)                 1.000000000000000E-01
(PID.TID 0000.0001)     ;
(PID.TID 0000.0001) applyExchUV_early = /* Apply EXCH to U,V earlier in time-step */
(PID.TID 0000.0001)                   F
(PID.TID 0000.0001)     ;
(PID.TID 0000.0001) pickupStrictlyMatch= /* stop if pickup do not strictly match */
(PID.TID 0000.0001)                   T
(PID.TID 0000.0001)     ;
(PID.TID 0000.0001) nIter0   =   /* Run starting timestep number */
(PID.TID 0000.0001)                    8640
(PID.TID 0000.0001)     ;
(PID.TID 0000.0001) nTimeSteps = /* Number of timesteps */
(PID.TID 0000.0001)                      12
(PID.TID 0000.0001)     ;
(PID.TID 0000.0001) nEndIter =   /* Run ending timestep number */
(PID.TID 0000.0001)                    8652
(PID.TID 0000.0001)     ;
(PID.TID 0000.0001) baseTime =   /* Model base time ( s ) */
(PID.TID 0000.0001)                 0.000000000000000E+00
(PID.TID 0000.0001)     ;
(PID.TID 0000.0001) startTime =  /* Run start time ( s ) */
(PID.TID 0000.0001)                 2.592000000000000E+06
(PID.TID 0000.0001)     ;
(PID.TID 0000.0001) endTime  =   /* Integration ending time ( s ) */
(PID.TID 0000.0001)                 2.595600000000000E+06
(PID.TID 0000.0001)     ;
(PID.TID 0000.0001) pChkPtFreq = /* Permanent restart/pickup file interval ( s ) */
(PID.TID 0000.0001)                 2.592000000000000E+06
(PID.TID 0000.0001)     ;
(PID.TID 0000.0001) chkPtFreq  = /* Rolling restart/pickup file interval ( s ) */
(PID.TID 0000.0001)                 2.592000000000000E+06
(PID.TID 0000.0001)     ;
(PID.TID 0000.0001) pickup_write_mdsio =   /* Model IO flag. */
(PID.TID 0000.0001)                   T
(PID.TID 0000.0001)     ;
(PID.TID 0000.0001) pickup_read_mdsio =   /* Model IO flag. */
(PID.TID 0000.0001)                   T
(PID.TID 0000.0001)     ;
(PID.TID 0000.0001) pickup_write_immed =   /* Model IO flag. */
(PID.TID 0000.0001)                   F
(PID.TID 0000.0001)     ;
(PID.TID 0000.0001) writePickupAtEnd =   /* Model IO flag. */
(PID.TID 0000.0001)                   T
(PID.TID 0000.0001)     ;
(PID.TID 0000.0001) dumpFreq =   /* Model state write out interval ( s ). */
(PID.TID 0000.0001)                 1.555200000000000E+07
(PID.TID 0000.0001)     ;
(PID.TID 0000.0001) dumpInitAndLast= /* write out Initial & Last iter. model state */
(PID.TID 0000.0001)                   T
(PID.TID 0000.0001)     ;
(PID.TID 0000.0001) snapshot_mdsio =   /* Model IO flag. */
(PID.TID 0000.0001)                   T
(PID.TID 0000.0001)     ;
(PID.TID 0000.0001) monitorFreq =   /* Monitor output interval ( s ). */
(PID.TID 0000.0001)                 1.000000000000000E+00
(PID.TID 0000.0001)     ;
(PID.TID 0000.0001) monitorSelect = /* select group of variables to monitor */
(PID.TID 0000.0001)                       1
(PID.TID 0000.0001)     ;
(PID.TID 0000.0001) monitor_stdio =   /* Model IO flag. */
(PID.TID 0000.0001)                   T
(PID.TID 0000.0001)     ;
(PID.TID 0000.0001) externForcingPeriod =   /* forcing period (s) */
(PID.TID 0000.0001)                 0.000000000000000E+00
(PID.TID 0000.0001)     ;
(PID.TID 0000.0001) externForcingCycle =   /* period of the cyle (s). */
(PID.TID 0000.0001)                 0.000000000000000E+00
(PID.TID 0000.0001)     ;
(PID.TID 0000.0001) tauThetaClimRelax =   /* relaxation time scale (s) */
(PID.TID 0000.0001)                 0.000000000000000E+00
(PID.TID 0000.0001)     ;
(PID.TID 0000.0001) tauSaltClimRelax =   /* relaxation time scale (s) */
(PID.TID 0000.0001)                 0.000000000000000E+00
(PID.TID 0000.0001)     ;
(PID.TID 0000.0001) latBandClimRelax =   /* max. Lat. where relaxation */
(PID.TID 0000.0001)                 1.800000000000000E+02
(PID.TID 0000.0001)     ;
(PID.TID 0000.0001) //
(PID.TID 0000.0001) // Gridding paramters ( PARM04 in namelist )
(PID.TID 0000.0001) //
(PID.TID 0000.0001) usingCartesianGrid = /* Cartesian coordinates flag ( True/False ) */
(PID.TID 0000.0001)                   F
(PID.TID 0000.0001)     ;
(PID.TID 0000.0001) usingCylindricalGrid = /* Cylindrical coordinates flag ( True/False ) */
(PID.TID 0000.0001)                   F
(PID.TID 0000.0001)     ;
(PID.TID 0000.0001) usingSphericalPolarGrid = /* Spherical coordinates flag ( True/False ) */
(PID.TID 0000.0001)                   T
(PID.TID 0000.0001)     ;
(PID.TID 0000.0001) usingCurvilinearGrid = /* Curvilinear coordinates flag ( True/False ) */
(PID.TID 0000.0001)                   F
(PID.TID 0000.0001)     ;
(PID.TID 0000.0001) selectSigmaCoord = /* Hybrid-Sigma Vert. Coordinate option */
(PID.TID 0000.0001)                       0
(PID.TID 0000.0001)     ;
(PID.TID 0000.0001) rSigmaBnd = /* r/sigma transition ( units of r ==  m ) */
(PID.TID 0000.0001)                 1.234567000000000E+05
(PID.TID 0000.0001)     ;
(PID.TID 0000.0001) rkSign =   /* index orientation relative to vertical coordinate */
(PID.TID 0000.0001)                -1.000000000000000E+00
(PID.TID 0000.0001)     ;
(PID.TID 0000.0001) gravitySign = /* gravity orientation relative to vertical coordinate */
(PID.TID 0000.0001)                -1.000000000000000E+00
(PID.TID 0000.0001)     ;
(PID.TID 0000.0001) seaLev_Z =  /* reference height of sea-level [m] */
(PID.TID 0000.0001)                 0.000000000000000E+00
(PID.TID 0000.0001)     ;
(PID.TID 0000.0001) top_Pres =  /* reference pressure at the top [Pa] */
(PID.TID 0000.0001)                 0.000000000000000E+00
(PID.TID 0000.0001)     ;
(PID.TID 0000.0001) mass2rUnit = /* convert mass per unit area [kg/m2] to r-units [m] */
(PID.TID 0000.0001)                 1.000000000000000E-03
(PID.TID 0000.0001)     ;
(PID.TID 0000.0001) rUnit2mass = /* convert r-units [m] to mass per unit area [kg/m2] */
(PID.TID 0000.0001)                 1.000000000000000E+03
(PID.TID 0000.0001)     ;
(PID.TID 0000.0001) drC =   /* C spacing ( units of r ) */
(PID.TID 0000.0001)                 5.000000000000000E+00,      /* K =  1 */
(PID.TID 0000.0001)   129 @  1.000000000000000E+01,             /* K =  2:130 */
(PID.TID 0000.0001)                 5.000000000000000E+00       /* K =131 */
(PID.TID 0000.0001)     ;
(PID.TID 0000.0001) drF =   /* W spacing ( units of r ) */
(PID.TID 0000.0001)   130 @  1.000000000000000E+01              /* K =  1:130 */
(PID.TID 0000.0001)     ;
(PID.TID 0000.0001) delX = /* U spacing ( m - cartesian, degrees - spherical ) */
(PID.TID 0000.0001)     3 @  1.250000000000000E-01              /* I =  1:  3 */
(PID.TID 0000.0001)     ;
(PID.TID 0000.0001) delY = /* V spacing ( m - cartesian, degrees - spherical ) */
(PID.TID 0000.0001)   400 @  7.812500000000000E-03              /* J =  1:400 */
(PID.TID 0000.0001)     ;
(PID.TID 0000.0001) xgOrigin = /* X-axis origin of West  edge (cartesian: m, lat-lon: deg) */
(PID.TID 0000.0001)                -1.055000000000000E+02
(PID.TID 0000.0001)     ;
(PID.TID 0000.0001) ygOrigin = /* Y-axis origin of South edge (cartesian: m, lat-lon: deg) */
(PID.TID 0000.0001)                -7.544570000000000E+01
(PID.TID 0000.0001)     ;
(PID.TID 0000.0001) rSphere =  /* Radius ( ignored - cartesian, m - spherical ) */
(PID.TID 0000.0001)                 6.370000000000000E+06
(PID.TID 0000.0001)     ;
(PID.TID 0000.0001) deepAtmosphere = /* Deep/Shallow Atmosphere flag (True/False) */
(PID.TID 0000.0001)                   F
(PID.TID 0000.0001)     ;
(PID.TID 0000.0001) xC =  /* xC(:,1,:,1) : P-point X coord ( deg. or m if cartesian) */
(PID.TID 0000.0001)                -1.054375000000000E+02,      /* I =  1 */
(PID.TID 0000.0001)                -1.053125000000000E+02,      /* I =  2 */
(PID.TID 0000.0001)                -1.051875000000000E+02       /* I =  3 */
(PID.TID 0000.0001)     ;
(PID.TID 0000.0001) yC =  /* yC(1,:,1,:) : P-point Y coord ( deg. or m if cartesian) */
(PID.TID 0000.0001)                -7.544179375000000E+01,      /* J =  1 */
(PID.TID 0000.0001)                -7.543398125000000E+01,      /* J =  2 */
(PID.TID 0000.0001)                -7.542616875000000E+01,      /* J =  3 */
(PID.TID 0000.0001)      . . .
(PID.TID 0000.0001)                -7.468398125000000E+01,      /* J = 98 */
(PID.TID 0000.0001)                -7.467616875000000E+01,      /* J = 99 */
(PID.TID 0000.0001)                -7.466835625000000E+01,      /* J =100 */
(PID.TID 0000.0001)                -7.466054375000000E+01,      /* J =101 */
(PID.TID 0000.0001)                -7.465273125000000E+01,      /* J =102 */
(PID.TID 0000.0001)                -7.464491875000000E+01,      /* J =103 */
(PID.TID 0000.0001)      . . .
(PID.TID 0000.0001)                -7.390273125000000E+01,      /* J =198 */
(PID.TID 0000.0001)                -7.389491875000000E+01,      /* J =199 */
(PID.TID 0000.0001)                -7.388710625000000E+01,      /* J =200 */
(PID.TID 0000.0001)                -7.387929375000000E+01,      /* J =201 */
(PID.TID 0000.0001)                -7.387148125000000E+01,      /* J =202 */
(PID.TID 0000.0001)                -7.386366875000000E+01,      /* J =203 */
(PID.TID 0000.0001)      . . .
(PID.TID 0000.0001)                -7.312148125000000E+01,      /* J =298 */
(PID.TID 0000.0001)                -7.311366875000000E+01,      /* J =299 */
(PID.TID 0000.0001)                -7.310585625000000E+01,      /* J =300 */
(PID.TID 0000.0001)                -7.309804375000000E+01,      /* J =301 */
(PID.TID 0000.0001)                -7.309023125000000E+01,      /* J =302 */
(PID.TID 0000.0001)                -7.308241875000000E+01,      /* J =303 */
(PID.TID 0000.0001)      . . .
(PID.TID 0000.0001)                -7.234023125000000E+01,      /* J =398 */
(PID.TID 0000.0001)                -7.233241875000000E+01,      /* J =399 */
(PID.TID 0000.0001)                -7.232460625000000E+01       /* J =400 */
(PID.TID 0000.0001)     ;
(PID.TID 0000.0001) rcoord = /* P-point R coordinate (  units of r ) */
(PID.TID 0000.0001)                -5.000000000000000E+00,      /* K =  1 */
(PID.TID 0000.0001)                -1.500000000000000E+01,      /* K =  2 */
(PID.TID 0000.0001)                -2.500000000000000E+01,      /* K =  3 */
(PID.TID 0000.0001)                -3.500000000000000E+01,      /* K =  4 */
(PID.TID 0000.0001)                -4.500000000000000E+01,      /* K =  5 */
(PID.TID 0000.0001)                -5.500000000000000E+01,      /* K =  6 */
(PID.TID 0000.0001)                -6.500000000000000E+01,      /* K =  7 */
(PID.TID 0000.0001)                -7.500000000000000E+01,      /* K =  8 */
(PID.TID 0000.0001)                -8.500000000000000E+01,      /* K =  9 */
(PID.TID 0000.0001)                -9.500000000000000E+01,      /* K = 10 */
(PID.TID 0000.0001)                -1.050000000000000E+02,      /* K = 11 */
(PID.TID 0000.0001)                -1.150000000000000E+02,      /* K = 12 */
(PID.TID 0000.0001)                -1.250000000000000E+02,      /* K = 13 */
(PID.TID 0000.0001)                -1.350000000000000E+02,      /* K = 14 */
(PID.TID 0000.0001)                -1.450000000000000E+02,      /* K = 15 */
(PID.TID 0000.0001)                -1.550000000000000E+02,      /* K = 16 */
(PID.TID 0000.0001)                -1.650000000000000E+02,      /* K = 17 */
(PID.TID 0000.0001)                -1.750000000000000E+02,      /* K = 18 */
(PID.TID 0000.0001)                -1.850000000000000E+02,      /* K = 19 */
(PID.TID 0000.0001)                -1.950000000000000E+02,      /* K = 20 */
(PID.TID 0000.0001)                -2.050000000000000E+02,      /* K = 21 */
(PID.TID 0000.0001)                -2.150000000000000E+02,      /* K = 22 */
(PID.TID 0000.0001)                -2.250000000000000E+02,      /* K = 23 */
(PID.TID 0000.0001)                -2.350000000000000E+02,      /* K = 24 */
(PID.TID 0000.0001)                -2.450000000000000E+02,      /* K = 25 */
(PID.TID 0000.0001)                -2.550000000000000E+02,      /* K = 26 */
(PID.TID 0000.0001)                -2.650000000000000E+02,      /* K = 27 */
(PID.TID 0000.0001)                -2.750000000000000E+02,      /* K = 28 */
(PID.TID 0000.0001)                -2.850000000000000E+02,      /* K = 29 */
(PID.TID 0000.0001)                -2.950000000000000E+02,      /* K = 30 */
(PID.TID 0000.0001)                -3.050000000000000E+02,      /* K = 31 */
(PID.TID 0000.0001)                -3.150000000000000E+02,      /* K = 32 */
(PID.TID 0000.0001)                -3.250000000000000E+02,      /* K = 33 */
(PID.TID 0000.0001)                -3.350000000000000E+02,      /* K = 34 */
(PID.TID 0000.0001)                -3.450000000000000E+02,      /* K = 35 */
(PID.TID 0000.0001)                -3.550000000000000E+02,      /* K = 36 */
(PID.TID 0000.0001)                -3.650000000000000E+02,      /* K = 37 */
(PID.TID 0000.0001)                -3.750000000000000E+02,      /* K = 38 */
(PID.TID 0000.0001)                -3.850000000000000E+02,      /* K = 39 */
(PID.TID 0000.0001)                -3.950000000000000E+02,      /* K = 40 */
(PID.TID 0000.0001)                -4.050000000000000E+02,      /* K = 41 */
(PID.TID 0000.0001)                -4.150000000000000E+02,      /* K = 42 */
(PID.TID 0000.0001)                -4.250000000000000E+02,      /* K = 43 */
(PID.TID 0000.0001)                -4.350000000000000E+02,      /* K = 44 */
(PID.TID 0000.0001)                -4.450000000000000E+02,      /* K = 45 */
(PID.TID 0000.0001)                -4.550000000000000E+02,      /* K = 46 */
(PID.TID 0000.0001)                -4.650000000000000E+02,      /* K = 47 */
(PID.TID 0000.0001)                -4.750000000000000E+02,      /* K = 48 */
(PID.TID 0000.0001)                -4.850000000000000E+02,      /* K = 49 */
(PID.TID 0000.0001)                -4.950000000000000E+02,      /* K = 50 */
(PID.TID 0000.0001)                -5.050000000000000E+02,      /* K = 51 */
(PID.TID 0000.0001)                -5.150000000000000E+02,      /* K = 52 */
(PID.TID 0000.0001)                -5.250000000000000E+02,      /* K = 53 */
(PID.TID 0000.0001)                -5.350000000000000E+02,      /* K = 54 */
(PID.TID 0000.0001)                -5.450000000000000E+02,      /* K = 55 */
(PID.TID 0000.0001)                -5.550000000000000E+02,      /* K = 56 */
(PID.TID 0000.0001)                -5.650000000000000E+02,      /* K = 57 */
(PID.TID 0000.0001)                -5.750000000000000E+02,      /* K = 58 */
(PID.TID 0000.0001)                -5.850000000000000E+02,      /* K = 59 */
(PID.TID 0000.0001)                -5.950000000000000E+02,      /* K = 60 */
(PID.TID 0000.0001)                -6.050000000000000E+02,      /* K = 61 */
(PID.TID 0000.0001)                -6.150000000000000E+02,      /* K = 62 */
(PID.TID 0000.0001)                -6.250000000000000E+02,      /* K = 63 */
(PID.TID 0000.0001)                -6.350000000000000E+02,      /* K = 64 */
(PID.TID 0000.0001)                -6.450000000000000E+02,      /* K = 65 */
(PID.TID 0000.0001)                -6.550000000000000E+02,      /* K = 66 */
(PID.TID 0000.0001)                -6.650000000000000E+02,      /* K = 67 */
(PID.TID 0000.0001)                -6.750000000000000E+02,      /* K = 68 */
(PID.TID 0000.0001)                -6.850000000000000E+02,      /* K = 69 */
(PID.TID 0000.0001)                -6.950000000000000E+02,      /* K = 70 */
(PID.TID 0000.0001)                -7.050000000000000E+02,      /* K = 71 */
(PID.TID 0000.0001)                -7.150000000000000E+02,      /* K = 72 */
(PID.TID 0000.0001)                -7.250000000000000E+02,      /* K = 73 */
(PID.TID 0000.0001)                -7.350000000000000E+02,      /* K = 74 */
(PID.TID 0000.0001)                -7.450000000000000E+02,      /* K = 75 */
(PID.TID 0000.0001)                -7.550000000000000E+02,      /* K = 76 */
(PID.TID 0000.0001)                -7.650000000000000E+02,      /* K = 77 */
(PID.TID 0000.0001)                -7.750000000000000E+02,      /* K = 78 */
(PID.TID 0000.0001)                -7.850000000000000E+02,      /* K = 79 */
(PID.TID 0000.0001)                -7.950000000000000E+02,      /* K = 80 */
(PID.TID 0000.0001)                -8.050000000000000E+02,      /* K = 81 */
(PID.TID 0000.0001)                -8.150000000000000E+02,      /* K = 82 */
(PID.TID 0000.0001)                -8.250000000000000E+02,      /* K = 83 */
(PID.TID 0000.0001)                -8.350000000000000E+02,      /* K = 84 */
(PID.TID 0000.0001)                -8.450000000000000E+02,      /* K = 85 */
(PID.TID 0000.0001)                -8.550000000000000E+02,      /* K = 86 */
(PID.TID 0000.0001)                -8.650000000000000E+02,      /* K = 87 */
(PID.TID 0000.0001)                -8.750000000000000E+02,      /* K = 88 */
(PID.TID 0000.0001)                -8.850000000000000E+02,      /* K = 89 */
(PID.TID 0000.0001)                -8.950000000000000E+02,      /* K = 90 */
(PID.TID 0000.0001)                -9.050000000000000E+02,      /* K = 91 */
(PID.TID 0000.0001)                -9.150000000000000E+02,      /* K = 92 */
(PID.TID 0000.0001)                -9.250000000000000E+02,      /* K = 93 */
(PID.TID 0000.0001)                -9.350000000000000E+02,      /* K = 94 */
(PID.TID 0000.0001)                -9.450000000000000E+02,      /* K = 95 */
(PID.TID 0000.0001)                -9.550000000000000E+02,      /* K = 96 */
(PID.TID 0000.0001)                -9.650000000000000E+02,      /* K = 97 */
(PID.TID 0000.0001)                -9.750000000000000E+02,      /* K = 98 */
(PID.TID 0000.0001)                -9.850000000000000E+02,      /* K = 99 */
(PID.TID 0000.0001)                -9.950000000000000E+02,      /* K =100 */
(PID.TID 0000.0001)                -1.005000000000000E+03,      /* K =101 */
(PID.TID 0000.0001)                -1.015000000000000E+03,      /* K =102 */
(PID.TID 0000.0001)                -1.025000000000000E+03,      /* K =103 */
(PID.TID 0000.0001)                -1.035000000000000E+03,      /* K =104 */
(PID.TID 0000.0001)                -1.045000000000000E+03,      /* K =105 */
(PID.TID 0000.0001)                -1.055000000000000E+03,      /* K =106 */
(PID.TID 0000.0001)                -1.065000000000000E+03,      /* K =107 */
(PID.TID 0000.0001)                -1.075000000000000E+03,      /* K =108 */
(PID.TID 0000.0001)                -1.085000000000000E+03,      /* K =109 */
(PID.TID 0000.0001)                -1.095000000000000E+03,      /* K =110 */
(PID.TID 0000.0001)                -1.105000000000000E+03,      /* K =111 */
(PID.TID 0000.0001)                -1.115000000000000E+03,      /* K =112 */
(PID.TID 0000.0001)                -1.125000000000000E+03,      /* K =113 */
(PID.TID 0000.0001)                -1.135000000000000E+03,      /* K =114 */
(PID.TID 0000.0001)                -1.145000000000000E+03,      /* K =115 */
(PID.TID 0000.0001)                -1.155000000000000E+03,      /* K =116 */
(PID.TID 0000.0001)                -1.165000000000000E+03,      /* K =117 */
(PID.TID 0000.0001)                -1.175000000000000E+03,      /* K =118 */
(PID.TID 0000.0001)                -1.185000000000000E+03,      /* K =119 */
(PID.TID 0000.0001)                -1.195000000000000E+03,      /* K =120 */
(PID.TID 0000.0001)                -1.205000000000000E+03,      /* K =121 */
(PID.TID 0000.0001)                -1.215000000000000E+03,      /* K =122 */
(PID.TID 0000.0001)                -1.225000000000000E+03,      /* K =123 */
(PID.TID 0000.0001)                -1.235000000000000E+03,      /* K =124 */
(PID.TID 0000.0001)                -1.245000000000000E+03,      /* K =125 */
(PID.TID 0000.0001)                -1.255000000000000E+03,      /* K =126 */
(PID.TID 0000.0001)                -1.265000000000000E+03,      /* K =127 */
(PID.TID 0000.0001)                -1.275000000000000E+03,      /* K =128 */
(PID.TID 0000.0001)                -1.285000000000000E+03,      /* K =129 */
(PID.TID 0000.0001)                -1.295000000000000E+03       /* K =130 */
(PID.TID 0000.0001)     ;
(PID.TID 0000.0001) rF =   /* W-Interf. R coordinate (  units of r ) */
(PID.TID 0000.0001)                 0.000000000000000E+00,      /* K =  1 */
(PID.TID 0000.0001)                -1.000000000000000E+01,      /* K =  2 */
(PID.TID 0000.0001)                -2.000000000000000E+01,      /* K =  3 */
(PID.TID 0000.0001)                -3.000000000000000E+01,      /* K =  4 */
(PID.TID 0000.0001)                -4.000000000000000E+01,      /* K =  5 */
(PID.TID 0000.0001)                -5.000000000000000E+01,      /* K =  6 */
(PID.TID 0000.0001)                -6.000000000000000E+01,      /* K =  7 */
(PID.TID 0000.0001)                -7.000000000000000E+01,      /* K =  8 */
(PID.TID 0000.0001)                -8.000000000000000E+01,      /* K =  9 */
(PID.TID 0000.0001)                -9.000000000000000E+01,      /* K = 10 */
(PID.TID 0000.0001)                -1.000000000000000E+02,      /* K = 11 */
(PID.TID 0000.0001)                -1.100000000000000E+02,      /* K = 12 */
(PID.TID 0000.0001)                -1.200000000000000E+02,      /* K = 13 */
(PID.TID 0000.0001)                -1.300000000000000E+02,      /* K = 14 */
(PID.TID 0000.0001)                -1.400000000000000E+02,      /* K = 15 */
(PID.TID 0000.0001)                -1.500000000000000E+02,      /* K = 16 */
(PID.TID 0000.0001)                -1.600000000000000E+02,      /* K = 17 */
(PID.TID 0000.0001)                -1.700000000000000E+02,      /* K = 18 */
(PID.TID 0000.0001)                -1.800000000000000E+02,      /* K = 19 */
(PID.TID 0000.0001)                -1.900000000000000E+02,      /* K = 20 */
(PID.TID 0000.0001)                -2.000000000000000E+02,      /* K = 21 */
(PID.TID 0000.0001)                -2.100000000000000E+02,      /* K = 22 */
(PID.TID 0000.0001)                -2.200000000000000E+02,      /* K = 23 */
(PID.TID 0000.0001)                -2.300000000000000E+02,      /* K = 24 */
(PID.TID 0000.0001)                -2.400000000000000E+02,      /* K = 25 */
(PID.TID 0000.0001)                -2.500000000000000E+02,      /* K = 26 */
(PID.TID 0000.0001)                -2.600000000000000E+02,      /* K = 27 */
(PID.TID 0000.0001)                -2.700000000000000E+02,      /* K = 28 */
(PID.TID 0000.0001)                -2.800000000000000E+02,      /* K = 29 */
(PID.TID 0000.0001)                -2.900000000000000E+02,      /* K = 30 */
(PID.TID 0000.0001)                -3.000000000000000E+02,      /* K = 31 */
(PID.TID 0000.0001)                -3.100000000000000E+02,      /* K = 32 */
(PID.TID 0000.0001)                -3.200000000000000E+02,      /* K = 33 */
(PID.TID 0000.0001)                -3.300000000000000E+02,      /* K = 34 */
(PID.TID 0000.0001)                -3.400000000000000E+02,      /* K = 35 */
(PID.TID 0000.0001)                -3.500000000000000E+02,      /* K = 36 */
(PID.TID 0000.0001)                -3.600000000000000E+02,      /* K = 37 */
(PID.TID 0000.0001)                -3.700000000000000E+02,      /* K = 38 */
(PID.TID 0000.0001)                -3.800000000000000E+02,      /* K = 39 */
(PID.TID 0000.0001)                -3.900000000000000E+02,      /* K = 40 */
(PID.TID 0000.0001)                -4.000000000000000E+02,      /* K = 41 */
(PID.TID 0000.0001)                -4.100000000000000E+02,      /* K = 42 */
(PID.TID 0000.0001)                -4.200000000000000E+02,      /* K = 43 */
(PID.TID 0000.0001)                -4.300000000000000E+02,      /* K = 44 */
(PID.TID 0000.0001)                -4.400000000000000E+02,      /* K = 45 */
(PID.TID 0000.0001)                -4.500000000000000E+02,      /* K = 46 */
(PID.TID 0000.0001)                -4.600000000000000E+02,      /* K = 47 */
(PID.TID 0000.0001)                -4.700000000000000E+02,      /* K = 48 */
(PID.TID 0000.0001)                -4.800000000000000E+02,      /* K = 49 */
(PID.TID 0000.0001)                -4.900000000000000E+02,      /* K = 50 */
(PID.TID 0000.0001)                -5.000000000000000E+02,      /* K = 51 */
(PID.TID 0000.0001)                -5.100000000000000E+02,      /* K = 52 */
(PID.TID 0000.0001)                -5.200000000000000E+02,      /* K = 53 */
(PID.TID 0000.0001)                -5.300000000000000E+02,      /* K = 54 */
(PID.TID 0000.0001)                -5.400000000000000E+02,      /* K = 55 */
(PID.TID 0000.0001)                -5.500000000000000E+02,      /* K = 56 */
(PID.TID 0000.0001)                -5.600000000000000E+02,      /* K = 57 */
(PID.TID 0000.0001)                -5.700000000000000E+02,      /* K = 58 */
(PID.TID 0000.0001)                -5.800000000000000E+02,      /* K = 59 */
(PID.TID 0000.0001)                -5.900000000000000E+02,      /* K = 60 */
(PID.TID 0000.0001)                -6.000000000000000E+02,      /* K = 61 */
(PID.TID 0000.0001)                -6.100000000000000E+02,      /* K = 62 */
(PID.TID 0000.0001)                -6.200000000000000E+02,      /* K = 63 */
(PID.TID 0000.0001)                -6.300000000000000E+02,      /* K = 64 */
(PID.TID 0000.0001)                -6.400000000000000E+02,      /* K = 65 */
(PID.TID 0000.0001)                -6.500000000000000E+02,      /* K = 66 */
(PID.TID 0000.0001)                -6.600000000000000E+02,      /* K = 67 */
(PID.TID 0000.0001)                -6.700000000000000E+02,      /* K = 68 */
(PID.TID 0000.0001)                -6.800000000000000E+02,      /* K = 69 */
(PID.TID 0000.0001)                -6.900000000000000E+02,      /* K = 70 */
(PID.TID 0000.0001)                -7.000000000000000E+02,      /* K = 71 */
(PID.TID 0000.0001)                -7.100000000000000E+02,      /* K = 72 */
(PID.TID 0000.0001)                -7.200000000000000E+02,      /* K = 73 */
(PID.TID 0000.0001)                -7.300000000000000E+02,      /* K = 74 */
(PID.TID 0000.0001)                -7.400000000000000E+02,      /* K = 75 */
(PID.TID 0000.0001)                -7.500000000000000E+02,      /* K = 76 */
(PID.TID 0000.0001)                -7.600000000000000E+02,      /* K = 77 */
(PID.TID 0000.0001)                -7.700000000000000E+02,      /* K = 78 */
(PID.TID 0000.0001)                -7.800000000000000E+02,      /* K = 79 */
(PID.TID 0000.0001)                -7.900000000000000E+02,      /* K = 80 */
(PID.TID 0000.0001)                -8.000000000000000E+02,      /* K = 81 */
(PID.TID 0000.0001)                -8.100000000000000E+02,      /* K = 82 */
(PID.TID 0000.0001)                -8.200000000000000E+02,      /* K = 83 */
(PID.TID 0000.0001)                -8.300000000000000E+02,      /* K = 84 */
(PID.TID 0000.0001)                -8.400000000000000E+02,      /* K = 85 */
(PID.TID 0000.0001)                -8.500000000000000E+02,      /* K = 86 */
(PID.TID 0000.0001)                -8.600000000000000E+02,      /* K = 87 */
(PID.TID 0000.0001)                -8.700000000000000E+02,      /* K = 88 */
(PID.TID 0000.0001)                -8.800000000000000E+02,      /* K = 89 */
(PID.TID 0000.0001)                -8.900000000000000E+02,      /* K = 90 */
(PID.TID 0000.0001)                -9.000000000000000E+02,      /* K = 91 */
(PID.TID 0000.0001)                -9.100000000000000E+02,      /* K = 92 */
(PID.TID 0000.0001)                -9.200000000000000E+02,      /* K = 93 */
(PID.TID 0000.0001)                -9.300000000000000E+02,      /* K = 94 */
(PID.TID 0000.0001)                -9.400000000000000E+02,      /* K = 95 */
(PID.TID 0000.0001)                -9.500000000000000E+02,      /* K = 96 */
(PID.TID 0000.0001)                -9.600000000000000E+02,      /* K = 97 */
(PID.TID 0000.0001)                -9.700000000000000E+02,      /* K = 98 */
(PID.TID 0000.0001)                -9.800000000000000E+02,      /* K = 99 */
(PID.TID 0000.0001)                -9.900000000000000E+02,      /* K =100 */
(PID.TID 0000.0001)                -1.000000000000000E+03,      /* K =101 */
(PID.TID 0000.0001)                -1.010000000000000E+03,      /* K =102 */
(PID.TID 0000.0001)                -1.020000000000000E+03,      /* K =103 */
(PID.TID 0000.0001)                -1.030000000000000E+03,      /* K =104 */
(PID.TID 0000.0001)                -1.040000000000000E+03,      /* K =105 */
(PID.TID 0000.0001)                -1.050000000000000E+03,      /* K =106 */
(PID.TID 0000.0001)                -1.060000000000000E+03,      /* K =107 */
(PID.TID 0000.0001)                -1.070000000000000E+03,      /* K =108 */
(PID.TID 0000.0001)                -1.080000000000000E+03,      /* K =109 */
(PID.TID 0000.0001)                -1.090000000000000E+03,      /* K =110 */
(PID.TID 0000.0001)                -1.100000000000000E+03,      /* K =111 */
(PID.TID 0000.0001)                -1.110000000000000E+03,      /* K =112 */
(PID.TID 0000.0001)                -1.120000000000000E+03,      /* K =113 */
(PID.TID 0000.0001)                -1.130000000000000E+03,      /* K =114 */
(PID.TID 0000.0001)                -1.140000000000000E+03,      /* K =115 */
(PID.TID 0000.0001)                -1.150000000000000E+03,      /* K =116 */
(PID.TID 0000.0001)                -1.160000000000000E+03,      /* K =117 */
(PID.TID 0000.0001)                -1.170000000000000E+03,      /* K =118 */
(PID.TID 0000.0001)                -1.180000000000000E+03,      /* K =119 */
(PID.TID 0000.0001)                -1.190000000000000E+03,      /* K =120 */
(PID.TID 0000.0001)                -1.200000000000000E+03,      /* K =121 */
(PID.TID 0000.0001)                -1.210000000000000E+03,      /* K =122 */
(PID.TID 0000.0001)                -1.220000000000000E+03,      /* K =123 */
(PID.TID 0000.0001)                -1.230000000000000E+03,      /* K =124 */
(PID.TID 0000.0001)                -1.240000000000000E+03,      /* K =125 */
(PID.TID 0000.0001)                -1.250000000000000E+03,      /* K =126 */
(PID.TID 0000.0001)                -1.260000000000000E+03,      /* K =127 */
(PID.TID 0000.0001)                -1.270000000000000E+03,      /* K =128 */
(PID.TID 0000.0001)                -1.280000000000000E+03,      /* K =129 */
(PID.TID 0000.0001)                -1.290000000000000E+03,      /* K =130 */
(PID.TID 0000.0001)                -1.300000000000000E+03       /* K =131 */
(PID.TID 0000.0001)     ;
(PID.TID 0000.0001) deepFacC = /* deep-model grid factor @ cell-Center (-) */
(PID.TID 0000.0001)   130 @  1.000000000000000E+00              /* K =  1:130 */
(PID.TID 0000.0001)     ;
(PID.TID 0000.0001) deepFacF = /* deep-model grid factor @ W-Interface (-) */
(PID.TID 0000.0001)   131 @  1.000000000000000E+00              /* K =  1:131 */
(PID.TID 0000.0001)     ;
(PID.TID 0000.0001) rVel2wUnit = /* convert units: rVel -> wSpeed (=1 if z-coord)*/
(PID.TID 0000.0001)   131 @  1.000000000000000E+00              /* K =  1:131 */
(PID.TID 0000.0001)     ;
(PID.TID 0000.0001) wUnit2rVel = /* convert units: wSpeed -> rVel (=1 if z-coord)*/
(PID.TID 0000.0001)   131 @  1.000000000000000E+00              /* K =  1:131 */
(PID.TID 0000.0001)     ;
(PID.TID 0000.0001) dBdrRef = /* Vertical grad. of reference buoyancy [(m/s/r)^2] */
(PID.TID 0000.0001)   130 @  0.000000000000000E+00              /* K =  1:130 */
(PID.TID 0000.0001)     ;
(PID.TID 0000.0001) rotateGrid = /* use rotated grid ( True/False ) */
(PID.TID 0000.0001)                   F
(PID.TID 0000.0001)     ;
(PID.TID 0000.0001) phiEuler = /* Euler angle, rotation about original z-coordinate [rad] */
(PID.TID 0000.0001)                 0.000000000000000E+00
(PID.TID 0000.0001)     ;
(PID.TID 0000.0001) thetaEuler = /* Euler angle, rotation about new x-coordinate [rad] */
(PID.TID 0000.0001)                 0.000000000000000E+00
(PID.TID 0000.0001)     ;
(PID.TID 0000.0001) psiEuler = /* Euler angle, rotation about new z-coordinate [rad] */
(PID.TID 0000.0001)                 0.000000000000000E+00
(PID.TID 0000.0001)     ;
(PID.TID 0000.0001) dxF =  /* dxF(:,1,:,1) ( units: m ) */
(PID.TID 0000.0001)     3 @  3.493243558711626E+03              /* I =  1:  3 */
(PID.TID 0000.0001)     ;
(PID.TID 0000.0001) dxF =  /* dxF(1,:,1,:) ( units: m ) */
(PID.TID 0000.0001)                 3.493243558711626E+03,      /* J =  1 */
(PID.TID 0000.0001)                 3.495077619691311E+03,      /* J =  2 */
(PID.TID 0000.0001)                 3.496911615689215E+03,      /* J =  3 */
(PID.TID 0000.0001)      . . .
(PID.TID 0000.0001)                 3.670839895332228E+03,      /* J = 98 */
(PID.TID 0000.0001)                 3.672667494497579E+03,      /* J = 99 */
(PID.TID 0000.0001)                 3.674495025379331E+03,      /* J =100 */
(PID.TID 0000.0001)                 3.676322487943506E+03,      /* J =101 */
(PID.TID 0000.0001)                 3.678149882156126E+03,      /* J =102 */
(PID.TID 0000.0001)                 3.679977207983216E+03,      /* J =103 */
(PID.TID 0000.0001)      . . .
(PID.TID 0000.0001)                 3.853256318813865E+03,      /* J =198 */
(PID.TID 0000.0001)                 3.855076921635369E+03,      /* J =199 */
(PID.TID 0000.0001)                 3.856897452781851E+03,      /* J =200 */
(PID.TID 0000.0001)                 3.858717912219461E+03,      /* J =201 */
(PID.TID 0000.0001)                 3.860538299914350E+03,      /* J =202 */
(PID.TID 0000.0001)                 3.862358615832679E+03,      /* J =203 */
(PID.TID 0000.0001)      . . .
(PID.TID 0000.0001)                 4.034956341653550E+03,      /* J =298 */
(PID.TID 0000.0001)                 4.036769609643207E+03,      /* J =299 */
(PID.TID 0000.0001)                 4.038582802579742E+03,      /* J =300 */
(PID.TID 0000.0001)                 4.040395920429444E+03,      /* J =301 */
(PID.TID 0000.0001)                 4.042208963158603E+03,      /* J =302 */
(PID.TID 0000.0001)                 4.044021930733511E+03,      /* J =303 */
(PID.TID 0000.0001)      . . .
(PID.TID 0000.0001)                 4.215906182030863E+03,      /* J =398 */
(PID.TID 0000.0001)                 4.217711778064368E+03,      /* J =399 */
(PID.TID 0000.0001)                 4.219517295680609E+03       /* J =400 */
(PID.TID 0000.0001)     ;
(PID.TID 0000.0001) dyF =  /* dyF(:,1,:,1) ( units: m ) */
(PID.TID 0000.0001)     3 @  8.685740105628031E+02              /* I =  1:  3 */
(PID.TID 0000.0001)     ;
(PID.TID 0000.0001) dyF =  /* dyF(1,:,1,:) ( units: m ) */
(PID.TID 0000.0001)   400 @  8.685740105628031E+02              /* J =  1:400 */
(PID.TID 0000.0001)     ;
(PID.TID 0000.0001) dxG =  /* dxG(:,1,:,1) ( units: m ) */
(PID.TID 0000.0001)     3 @  3.492326503864269E+03              /* I =  1:  3 */
(PID.TID 0000.0001)     ;
(PID.TID 0000.0001) dxG =  /* dxG(1,:,1,:) ( units: m ) */
(PID.TID 0000.0001)                 3.492326503864269E+03,      /* J =  1 */
(PID.TID 0000.0001)                 3.494160597322058E+03,      /* J =  2 */
(PID.TID 0000.0001)                 3.495994625815115E+03,      /* J =  3 */
(PID.TID 0000.0001)      . . .
(PID.TID 0000.0001)                 3.669926070153822E+03,      /* J = 98 */
(PID.TID 0000.0001)                 3.671753703448232E+03,      /* J = 99 */
(PID.TID 0000.0001)                 3.673581268476031E+03,      /* J =100 */
(PID.TID 0000.0001)                 3.675408765203241E+03,      /* J =101 */
(PID.TID 0000.0001)                 3.677236193595885E+03,      /* J =102 */
(PID.TID 0000.0001)                 3.679063553619987E+03,      /* J =103 */
(PID.TID 0000.0001)      . . .
(PID.TID 0000.0001)                 3.852345990535555E+03,      /* J =198 */
(PID.TID 0000.0001)                 3.854166629181878E+03,      /* J =199 */
(PID.TID 0000.0001)                 3.855987196170102E+03,      /* J =200 */
(PID.TID 0000.0001)                 3.857807691466379E+03,      /* J =201 */
(PID.TID 0000.0001)                 3.859628115036861E+03,      /* J =202 */
(PID.TID 0000.0001)                 3.861448466847702E+03,      /* J =203 */
(PID.TID 0000.0001)      . . .
(PID.TID 0000.0001)                 4.034049679524338E+03,      /* J =298 */
(PID.TID 0000.0001)                 4.035862985027913E+03,      /* J =299 */
(PID.TID 0000.0001)                 4.037676215495220E+03,      /* J =300 */
(PID.TID 0000.0001)                 4.039489370892552E+03,      /* J =301 */
(PID.TID 0000.0001)                 4.041302451186197E+03,      /* J =302 */
(PID.TID 0000.0001)                 4.043115456342444E+03,      /* J =303 */
(PID.TID 0000.0001)      . . .
(PID.TID 0000.0001)                 4.215003354618128E+03,      /* J =398 */
(PID.TID 0000.0001)                 4.216808989847678E+03,      /* J =399 */
(PID.TID 0000.0001)                 4.218614546676747E+03       /* J =400 */
(PID.TID 0000.0001)     ;
(PID.TID 0000.0001) dyG =  /* dyG(:,1,:,1) ( units: m ) */
(PID.TID 0000.0001)     3 @  8.685740105628031E+02              /* I =  1:  3 */
(PID.TID 0000.0001)     ;
(PID.TID 0000.0001) dyG =  /* dyG(1,:,1,:) ( units: m ) */
(PID.TID 0000.0001)   400 @  8.685740105628031E+02              /* J =  1:400 */
(PID.TID 0000.0001)     ;
(PID.TID 0000.0001) dxC =  /* dxC(:,1,:,1) ( units: m ) */
(PID.TID 0000.0001)     3 @  3.493243558711626E+03              /* I =  1:  3 */
(PID.TID 0000.0001)     ;
(PID.TID 0000.0001) dxC =  /* dxC(1,:,1,:) ( units: m ) */
(PID.TID 0000.0001)                 3.493243558711626E+03,      /* J =  1 */
(PID.TID 0000.0001)                 3.495077619691311E+03,      /* J =  2 */
(PID.TID 0000.0001)                 3.496911615689215E+03,      /* J =  3 */
(PID.TID 0000.0001)      . . .
(PID.TID 0000.0001)                 3.670839895332228E+03,      /* J = 98 */
(PID.TID 0000.0001)                 3.672667494497579E+03,      /* J = 99 */
(PID.TID 0000.0001)                 3.674495025379331E+03,      /* J =100 */
(PID.TID 0000.0001)                 3.676322487943506E+03,      /* J =101 */
(PID.TID 0000.0001)                 3.678149882156126E+03,      /* J =102 */
(PID.TID 0000.0001)                 3.679977207983216E+03,      /* J =103 */
(PID.TID 0000.0001)      . . .
(PID.TID 0000.0001)                 3.853256318813865E+03,      /* J =198 */
(PID.TID 0000.0001)                 3.855076921635369E+03,      /* J =199 */
(PID.TID 0000.0001)                 3.856897452781851E+03,      /* J =200 */
(PID.TID 0000.0001)                 3.858717912219461E+03,      /* J =201 */
(PID.TID 0000.0001)                 3.860538299914350E+03,      /* J =202 */
(PID.TID 0000.0001)                 3.862358615832679E+03,      /* J =203 */
(PID.TID 0000.0001)      . . .
(PID.TID 0000.0001)                 4.034956341653550E+03,      /* J =298 */
(PID.TID 0000.0001)                 4.036769609643207E+03,      /* J =299 */
(PID.TID 0000.0001)                 4.038582802579742E+03,      /* J =300 */
(PID.TID 0000.0001)                 4.040395920429444E+03,      /* J =301 */
(PID.TID 0000.0001)                 4.042208963158603E+03,      /* J =302 */
(PID.TID 0000.0001)                 4.044021930733511E+03,      /* J =303 */
(PID.TID 0000.0001)      . . .
(PID.TID 0000.0001)                 4.215906182030863E+03,      /* J =398 */
(PID.TID 0000.0001)                 4.217711778064368E+03,      /* J =399 */
(PID.TID 0000.0001)                 4.219517295680609E+03       /* J =400 */
(PID.TID 0000.0001)     ;
(PID.TID 0000.0001) dyC =  /* dyC(:,1,:,1) ( units: m ) */
(PID.TID 0000.0001)     3 @  8.685740105628031E+02              /* I =  1:  3 */
(PID.TID 0000.0001)     ;
(PID.TID 0000.0001) dyC =  /* dyC(1,:,1,:) ( units: m ) */
(PID.TID 0000.0001)   400 @  8.685740105628031E+02              /* J =  1:400 */
(PID.TID 0000.0001)     ;
(PID.TID 0000.0001) dxV =  /* dxV(:,1,:,1) ( units: m ) */
(PID.TID 0000.0001)     3 @  3.492326503864269E+03              /* I =  1:  3 */
(PID.TID 0000.0001)     ;
(PID.TID 0000.0001) dxV =  /* dxV(1,:,1,:) ( units: m ) */
(PID.TID 0000.0001)                 3.492326503864269E+03,      /* J =  1 */
(PID.TID 0000.0001)                 3.494160597322058E+03,      /* J =  2 */
(PID.TID 0000.0001)                 3.495994625815115E+03,      /* J =  3 */
(PID.TID 0000.0001)      . . .
(PID.TID 0000.0001)                 3.669926070153822E+03,      /* J = 98 */
(PID.TID 0000.0001)                 3.671753703448232E+03,      /* J = 99 */
(PID.TID 0000.0001)                 3.673581268476031E+03,      /* J =100 */
(PID.TID 0000.0001)                 3.675408765203241E+03,      /* J =101 */
(PID.TID 0000.0001)                 3.677236193595885E+03,      /* J =102 */
(PID.TID 0000.0001)                 3.679063553619987E+03,      /* J =103 */
(PID.TID 0000.0001)      . . .
(PID.TID 0000.0001)                 3.852345990535555E+03,      /* J =198 */
(PID.TID 0000.0001)                 3.854166629181878E+03,      /* J =199 */
(PID.TID 0000.0001)                 3.855987196170102E+03,      /* J =200 */
(PID.TID 0000.0001)                 3.857807691466379E+03,      /* J =201 */
(PID.TID 0000.0001)                 3.859628115036861E+03,      /* J =202 */
(PID.TID 0000.0001)                 3.861448466847702E+03,      /* J =203 */
(PID.TID 0000.0001)      . . .
(PID.TID 0000.0001)                 4.034049679524338E+03,      /* J =298 */
(PID.TID 0000.0001)                 4.035862985027913E+03,      /* J =299 */
(PID.TID 0000.0001)                 4.037676215495220E+03,      /* J =300 */
(PID.TID 0000.0001)                 4.039489370892552E+03,      /* J =301 */
(PID.TID 0000.0001)                 4.041302451186197E+03,      /* J =302 */
(PID.TID 0000.0001)                 4.043115456342444E+03,      /* J =303 */
(PID.TID 0000.0001)      . . .
(PID.TID 0000.0001)                 4.215003354618128E+03,      /* J =398 */
(PID.TID 0000.0001)                 4.216808989847678E+03,      /* J =399 */
(PID.TID 0000.0001)                 4.218614546676747E+03       /* J =400 */
(PID.TID 0000.0001)     ;
(PID.TID 0000.0001) dyU =  /* dyU(:,1,:,1) ( units: m ) */
(PID.TID 0000.0001)     3 @  8.685740105628031E+02              /* I =  1:  3 */
(PID.TID 0000.0001)     ;
(PID.TID 0000.0001) dyU =  /* dyU(1,:,1,:) ( units: m ) */
(PID.TID 0000.0001)   400 @  8.685740105628031E+02              /* J =  1:400 */
(PID.TID 0000.0001)     ;
(PID.TID 0000.0001) rA  =  /* rA (:,1,:,1) ( units: m^2 ) */
(PID.TID 0000.0001)     3 @  3.034140565311787E+06              /* I =  1:  3 */
(PID.TID 0000.0001)     ;
(PID.TID 0000.0001) rA  =  /* rA (1,:,1,:) ( units: m^2 ) */
(PID.TID 0000.0001)                 3.034140565311787E+06,      /* J =  1 */
(PID.TID 0000.0001)                 3.035733583016748E+06,      /* J =  2 */
(PID.TID 0000.0001)                 3.037326544268204E+06,      /* J =  3 */
(PID.TID 0000.0001)      . . .
(PID.TID 0000.0001)                 3.188396127550019E+06,      /* J = 98 */
(PID.TID 0000.0001)                 3.189983532691603E+06,      /* J = 99 */
(PID.TID 0000.0001)                 3.191570878509831E+06,      /* J =100 */
(PID.TID 0000.0001)                 3.193158165004705E+06,      /* J =101 */
(PID.TID 0000.0001)                 3.194745392117253E+06,      /* J =102 */
(PID.TID 0000.0001)                 3.196332559837649E+06,      /* J =103 */
(PID.TID 0000.0001)      . . .
(PID.TID 0000.0001)                 3.346838291964839E+06,      /* J =198 */
(PID.TID 0000.0001)                 3.348419620256216E+06,      /* J =199 */
(PID.TID 0000.0001)                 3.350000886305247E+06,      /* J =200 */
(PID.TID 0000.0001)                 3.351582090043131E+06,      /* J =201 */
(PID.TID 0000.0001)                 3.353163231489528E+06,      /* J =202 */
(PID.TID 0000.0001)                 3.354744310595294E+06,      /* J =203 */
(PID.TID 0000.0001)      . . .
(PID.TID 0000.0001)                 3.504658209401646E+06,      /* J =298 */
(PID.TID 0000.0001)                 3.506233166840357E+06,      /* J =299 */
(PID.TID 0000.0001)                 3.507808059117729E+06,      /* J =300 */
(PID.TID 0000.0001)                 3.509382886145306E+06,      /* J =301 */
(PID.TID 0000.0001)                 3.510957647942747E+06,      /* J =302 */
(PID.TID 0000.0001)                 3.512532344460908E+06,      /* J =303 */
(PID.TID 0000.0001)      . . .
(PID.TID 0000.0001)                 3.661826537846853E+06,      /* J =398 */
(PID.TID 0000.0001)                 3.663394831629484E+06,      /* J =399 */
(PID.TID 0000.0001)                 3.664963057312128E+06       /* J =400 */
(PID.TID 0000.0001)     ;
(PID.TID 0000.0001) rAw =  /* rAw(:,1,:,1) ( units: m^2 ) */
(PID.TID 0000.0001)     3 @  3.034140565311787E+06              /* I =  1:  3 */
(PID.TID 0000.0001)     ;
(PID.TID 0000.0001) rAw =  /* rAw(1,:,1,:) ( units: m^2 ) */
(PID.TID 0000.0001)                 3.034140565311787E+06,      /* J =  1 */
(PID.TID 0000.0001)                 3.035733583016748E+06,      /* J =  2 */
(PID.TID 0000.0001)                 3.037326544268204E+06,      /* J =  3 */
(PID.TID 0000.0001)      . . .
(PID.TID 0000.0001)                 3.188396127550019E+06,      /* J = 98 */
(PID.TID 0000.0001)                 3.189983532691603E+06,      /* J = 99 */
(PID.TID 0000.0001)                 3.191570878509831E+06,      /* J =100 */
(PID.TID 0000.0001)                 3.193158165004705E+06,      /* J =101 */
(PID.TID 0000.0001)                 3.194745392117253E+06,      /* J =102 */
(PID.TID 0000.0001)                 3.196332559837649E+06,      /* J =103 */
(PID.TID 0000.0001)      . . .
(PID.TID 0000.0001)                 3.346838291964839E+06,      /* J =198 */
(PID.TID 0000.0001)                 3.348419620256216E+06,      /* J =199 */
(PID.TID 0000.0001)                 3.350000886305247E+06,      /* J =200 */
(PID.TID 0000.0001)                 3.351582090043131E+06,      /* J =201 */
(PID.TID 0000.0001)                 3.353163231489528E+06,      /* J =202 */
(PID.TID 0000.0001)                 3.354744310595294E+06,      /* J =203 */
(PID.TID 0000.0001)      . . .
(PID.TID 0000.0001)                 3.504658209401646E+06,      /* J =298 */
(PID.TID 0000.0001)                 3.506233166840357E+06,      /* J =299 */
(PID.TID 0000.0001)                 3.507808059117729E+06,      /* J =300 */
(PID.TID 0000.0001)                 3.509382886145306E+06,      /* J =301 */
(PID.TID 0000.0001)                 3.510957647942747E+06,      /* J =302 */
(PID.TID 0000.0001)                 3.512532344460908E+06,      /* J =303 */
(PID.TID 0000.0001)      . . .
(PID.TID 0000.0001)                 3.661826537846853E+06,      /* J =398 */
(PID.TID 0000.0001)                 3.663394831629484E+06,      /* J =399 */
(PID.TID 0000.0001)                 3.664963057312128E+06       /* J =400 */
(PID.TID 0000.0001)     ;
(PID.TID 0000.0001) rAs =  /* rAs(:,1,:,1) ( units: m^2 ) */
(PID.TID 0000.0001)     3 @  3.033344035308899E+06              /* I =  1:  3 */
(PID.TID 0000.0001)     ;
(PID.TID 0000.0001) rAs =  /* rAs(1,:,1,:) ( units: m^2 ) */
(PID.TID 0000.0001)                 3.033344035308899E+06,      /* J =  1 */
(PID.TID 0000.0001)                 3.034937081211127E+06,      /* J =  2 */
(PID.TID 0000.0001)                 3.036530070699164E+06,      /* J =  3 */
(PID.TID 0000.0001)      . . .
(PID.TID 0000.0001)                 3.187602402747711E+06,      /* J = 98 */
(PID.TID 0000.0001)                 3.189189837531316E+06,      /* J = 99 */
(PID.TID 0000.0001)                 3.190777213021051E+06,      /* J =100 */
(PID.TID 0000.0001)                 3.192364529177601E+06,      /* J =101 */
(PID.TID 0000.0001)                 3.193951785981312E+06,      /* J =102 */
(PID.TID 0000.0001)                 3.195538983412527E+06,      /* J =103 */
(PID.TID 0000.0001)      . . .
(PID.TID 0000.0001)                 3.346047604486870E+06,      /* J =198 */
(PID.TID 0000.0001)                 3.347628963894507E+06,      /* J =199 */
(PID.TID 0000.0001)                 3.349210261059796E+06,      /* J =200 */
(PID.TID 0000.0001)                 3.350791495963082E+06,      /* J =201 */
(PID.TID 0000.0001)                 3.352372668555222E+06,      /* J =202 */
(PID.TID 0000.0001)                 3.353953778836218E+06,      /* J =203 */
(PID.TID 0000.0001)      . . .
(PID.TID 0000.0001)                 3.503870706239417E+06,      /* J =298 */
(PID.TID 0000.0001)                 3.505445696268626E+06,      /* J =299 */
(PID.TID 0000.0001)                 3.507020621126668E+06,      /* J =300 */
(PID.TID 0000.0001)                 3.508595480784056E+06,      /* J =301 */
(PID.TID 0000.0001)                 3.510170275211308E+06,      /* J =302 */
(PID.TID 0000.0001)                 3.511745004359280E+06,      /* J =303 */
(PID.TID 0000.0001)      . . .
(PID.TID 0000.0001)                 3.661042365421726E+06,      /* J =398 */
(PID.TID 0000.0001)                 3.662610693259267E+06,      /* J =399 */
(PID.TID 0000.0001)                 3.664178952986990E+06       /* J =400 */
(PID.TID 0000.0001)     ;
(PID.TID 0000.0001) globalArea = /* Integrated horizontal Area (m^2) */
(PID.TID 0000.0001)                 4.000354112641525E+09
(PID.TID 0000.0001)     ;
(PID.TID 0000.0001) // =======================================================
(PID.TID 0000.0001) // End of Model config. summary
(PID.TID 0000.0001) // =======================================================
(PID.TID 0000.0001) 
(PID.TID 0000.0001) == Packages configuration : Check & print summary ==
(PID.TID 0000.0001) 
(PID.TID 0000.0001) OBCS_CHECK: #define ALLOW_OBCS
(PID.TID 0000.0001) OBCS_CHECK: start summary:
(PID.TID 0000.0001) useOBCSprescribe = /* prescribe OB values */
(PID.TID 0000.0001)                   T
(PID.TID 0000.0001)     ;
(PID.TID 0000.0001) useOBCSbalance = /* balance the flow through OB */
(PID.TID 0000.0001)                   F
(PID.TID 0000.0001)     ;
(PID.TID 0000.0001) OBCS_uvApplyFac = /* Factor to apply to U,V 2nd column/row */
(PID.TID 0000.0001)                 1.000000000000000E+00
(PID.TID 0000.0001)     ;
(PID.TID 0000.0001) OBCS_u1_adv_T = /* Temp uses upwind adv-scheme @ OB */
(PID.TID 0000.0001)                       0
(PID.TID 0000.0001)     ;
(PID.TID 0000.0001) OBCS_u1_adv_S = /* Salt uses upwind adv-scheme @ OB */
(PID.TID 0000.0001)                       0
(PID.TID 0000.0001)     ;
(PID.TID 0000.0001) OBCS_monitorFreq = /* monitor output frequency [s] */
(PID.TID 0000.0001)                 1.000000000000000E+00
(PID.TID 0000.0001)     ;
(PID.TID 0000.0001) OBCS_monSelect = /* select group of variables to monitor */
(PID.TID 0000.0001)                       0
(PID.TID 0000.0001)     ;
(PID.TID 0000.0001) useOBCStides = /* apply tidal forcing through OB */
(PID.TID 0000.0001)                   F
(PID.TID 0000.0001)     ;
(PID.TID 0000.0001) tidalPeriod = /* (s) */
(PID.TID 0000.0001)    10 @  0.000000000000000E+00              /* I =  1: 10 */
(PID.TID 0000.0001)     ;
(PID.TID 0000.0001) OB_indexNone = /* null value for OB index (i.e. no OB) */
(PID.TID 0000.0001)                     -99
(PID.TID 0000.0001)     ;
(PID.TID 0000.0001) ======== Tile bi=   1 , bj=   1 ========
(PID.TID 0000.0001)  OB_Jn = /* Northern OB local indices */
(PID.TID 0000.0001)     9 @      400                            /* I = -2:  6 */
(PID.TID 0000.0001)  OB_Js = /* Southern OB local indices */
(PID.TID 0000.0001)     9 @      -99                            /* I = -2:  6 */
(PID.TID 0000.0001)  OB_Ie = /* Eastern OB local indices */
(PID.TID 0000.0001)   406 @      -99                            /* J = -2:403 */
(PID.TID 0000.0001)  OB_Iw = /* Western OB local indices */
(PID.TID 0000.0001)   406 @      -99                            /* J = -2:403 */
(PID.TID 0000.0001) OBCS_CHECK: end summary.
(PID.TID 0000.0001) OBCS_CHECK: set-up OK
(PID.TID 0000.0001) OBCS_CHECK: check Inside Mask and OB locations: OK
(PID.TID 0000.0001) SHELFICE_CHECK: #define ALLOW_SHELFICE
(PID.TID 0000.0001) 
(PID.TID 0000.0001) SHELFICE_CHECK: start of SHELFICE config. summary
(PID.TID 0000.0001) SHELFICEisOn = /* package is turned on */
(PID.TID 0000.0001)                   T
(PID.TID 0000.0001)     ;
(PID.TID 0000.0001) SHELFICEwriteState  = /* do simple standard output */
(PID.TID 0000.0001)                   T
(PID.TID 0000.0001)     ;
(PID.TID 0000.0001) SHELFICE_dump_mdsio = /* use mdsio for snapshots */
(PID.TID 0000.0001)                   T
(PID.TID 0000.0001)     ;
(PID.TID 0000.0001) SHELFICE_tave_mdsio = /* use mdsio for time averages */
(PID.TID 0000.0001)                   T
(PID.TID 0000.0001)     ;
(PID.TID 0000.0001) SHELFICE_dump_mnc   = /* use netcdf for snapshots */
(PID.TID 0000.0001)                   F
(PID.TID 0000.0001)     ;
(PID.TID 0000.0001) SHELFICE_tave_mnc   = /* use netcdf for time averages */
(PID.TID 0000.0001)                   F
(PID.TID 0000.0001)     ;
(PID.TID 0000.0001) SHELFICE_dumpFreq = /* analoguous to dumpFreq */
(PID.TID 0000.0001)                 1.555200000000000E+07
(PID.TID 0000.0001)     ;
(PID.TID 0000.0001) SHELFICE_taveFreq = /* analoguous to taveFreq */
(PID.TID 0000.0001)                 0.000000000000000E+00
(PID.TID 0000.0001)     ;
(PID.TID 0000.0001) useISOMIPTD = /* use simple isomip thermodynamics */
(PID.TID 0000.0001)                   F
(PID.TID 0000.0001)     ;
(PID.TID 0000.0001) SHELFICEconserve = /* use a conservative form of boundary conditions */
(PID.TID 0000.0001)                   T
(PID.TID 0000.0001)     ;
(PID.TID 0000.0001) SHELFICEboundaryLayer = /* use simple boundary layer scheme to suppress noise */
(PID.TID 0000.0001)                   T
(PID.TID 0000.0001)     ;
(PID.TID 0000.0001) SHELFICEadvDiffHeatFlux = /* use adv.-diff. instead of just diff. heat flux into the ice shelf */
(PID.TID 0000.0001)                   F
(PID.TID 0000.0001)     ;
(PID.TID 0000.0001) SHELFICEMassStepping = /* step forward ice shelf mass/thickness */
(PID.TID 0000.0001)                   T
(PID.TID 0000.0001)     ;
(PID.TID 0000.0001) no_slip_shelfice = /* use no slip boundary conditions */
(PID.TID 0000.0001)                   F
(PID.TID 0000.0001)     ;
(PID.TID 0000.0001) SHELFICEdragLinear    = /* linear drag coefficient */
(PID.TID 0000.0001)                 0.000000000000000E+00
(PID.TID 0000.0001)     ;
(PID.TID 0000.0001) SHELFICEdragQuadratic = /* quadratic drag coefficient */
(PID.TID 0000.0001)                 1.500000000000000E-03
(PID.TID 0000.0001)     ;
(PID.TID 0000.0001) SHELFICElatentHeat      = /* latent heat of ice */
(PID.TID 0000.0001)                 3.340000000000000E+05
(PID.TID 0000.0001)     ;
(PID.TID 0000.0001) SHELFICEheatCapacity_Cp = /* heat capacity of ice shelf */
(PID.TID 0000.0001)                 2.000000000000000E+03
(PID.TID 0000.0001)     ;
(PID.TID 0000.0001) rhoShelfice   = /* density of ice shelf */
(PID.TID 0000.0001)                 9.170000000000000E+02
(PID.TID 0000.0001)     ;
(PID.TID 0000.0001) SHELFICEkappa = /* thermal conductivity of ice shelf */
(PID.TID 0000.0001)                 1.540000000000000E-06
(PID.TID 0000.0001)     ;
(PID.TID 0000.0001) SHELFICEthetaSurface = /* surface temperature above i.s. */
(PID.TID 0000.0001)                -2.000000000000000E+01
(PID.TID 0000.0001)     ;
(PID.TID 0000.0001) SHELFICEheatTransCoeff = /* heat transfer coefficient */
(PID.TID 0000.0001)                 1.000000000000000E-04
(PID.TID 0000.0001)     ;
(PID.TID 0000.0001) SHELFICEsaltTransCoeff = /* salt transfer coefficient */
(PID.TID 0000.0001)                 5.050000000000000E-07
(PID.TID 0000.0001)     ;
(PID.TID 0000.0001) SHELFICEuseGammaFrict = /* use velocity dependent exchange coefficients */
(PID.TID 0000.0001)                   T
(PID.TID 0000.0001)     ;
(PID.TID 0000.0001) shiCdrag   = /* quadr. drag coefficient for uStar */
(PID.TID 0000.0001)                 1.500000000000000E-03
(PID.TID 0000.0001)     ;
(PID.TID 0000.0001) shiZetaN   = /* parameter for gammaTurb */
(PID.TID 0000.0001)                 5.200000000000000E-02
(PID.TID 0000.0001)     ;
(PID.TID 0000.0001) shiRc      = /* parameter for gammaTurb (not used) */
(PID.TID 0000.0001)                 2.000000000000000E-01
(PID.TID 0000.0001)     ;
(PID.TID 0000.0001) shiPrandtl = /* const. Prandtl No. for gammaTurb */
(PID.TID 0000.0001)                 1.380000000000000E+01
(PID.TID 0000.0001)     ;
(PID.TID 0000.0001) shiSchmidt = /* const. Schmidt No. for gammaTurb */
(PID.TID 0000.0001)                 2.432000000000000E+03
(PID.TID 0000.0001)     ;
(PID.TID 0000.0001) shiKinVisc = /* const. kin. viscosity for gammaTurb */
(PID.TID 0000.0001)                 1.950000000000000E-06
(PID.TID 0000.0001)     ;
(PID.TID 0000.0001) SHELFICEloadAnomalyFile = /* file name of loaded loadAnomaly field */
(PID.TID 0000.0001)               ''
(PID.TID 0000.0001)     ;
(PID.TID 0000.0001) SHELFICEmassFile = /* file name of loaded mass field */
(PID.TID 0000.0001)               'shelficemassinit.bin'
(PID.TID 0000.0001)     ;
(PID.TID 0000.0001) SHELFICEtopoFile = /* file name of loaded under-ice topography */
(PID.TID 0000.0001)               'shelftopo.round.bin'
(PID.TID 0000.0001)     ;
(PID.TID 0000.0001) SHELFICEMassDynTendFile = /* file name of loaded dynamic mass tendency field */
(PID.TID 0000.0001)               ''
(PID.TID 0000.0001)     ;
(PID.TID 0000.0001) SHELFICE_CHECK: end of SHELFICE config. summary
(PID.TID 0000.0001) STREAMICE_CHECK: #define STREAMICE
(PID.TID 0000.0001)  max cg interations = /* user defined parameter */
(PID.TID 0000.0001)                     700
(PID.TID 0000.0001)     ;
(PID.TID 0000.0001)  max nonlin interations = /* user defined parameter */
(PID.TID 0000.0001)                      50
(PID.TID 0000.0001)     ;
(PID.TID 0000.0001)  # of timesteps per velocity solve  = /* user defined parameter */
(PID.TID 0000.0001)                     144
(PID.TID 0000.0001)     ;
(PID.TID 0000.0001)  streamice_density = /* user defined parameter */
(PID.TID 0000.0001)                 9.170000000000000E+02
(PID.TID 0000.0001)     ;
(PID.TID 0000.0001)  streamice_density_ocean_avg = /* user defined parameter */
(PID.TID 0000.0001)                 1.028000000000000E+03
(PID.TID 0000.0001)     ;
(PID.TID 0000.0001)  glens law stifness = /* user defined parameter */
(PID.TID 0000.0001)                 7.000000000000000E+02
(PID.TID 0000.0001)     ;
(PID.TID 0000.0001)  glens law exponent = /* user defined parameter */
(PID.TID 0000.0001)                 3.000000000000000E+00
(PID.TID 0000.0001)     ;
(PID.TID 0000.0001)  basal trac coeff = /* user defined parameter */
(PID.TID 0000.0001)                 5.000000000000000E+00
(PID.TID 0000.0001)     ;
(PID.TID 0000.0001)  basal exponent = /* user defined parameter */
(PID.TID 0000.0001)                 1.000000000000000E+00
(PID.TID 0000.0001)     ;
(PID.TID 0000.0001)  uniform input flux (m^2/a) = /* user defined parameter */
(PID.TID 0000.0001)                 0.000000000000000E+00
(PID.TID 0000.0001)     ;
(PID.TID 0000.0001)  time for ice vel update (sec) = /* user defined parameter */
(PID.TID 0000.0001)                 4.320000000000000E+04
(PID.TID 0000.0001)     ;
(PID.TID 0000.0001)  conj grad tolerance = /* user defined parameter */
(PID.TID 0000.0001)                 1.000000000000000E-06
(PID.TID 0000.0001)     ;
(PID.TID 0000.0001)  ice velocity nonlinear iter tol = /* user defined parameter */
(PID.TID 0000.0001)                 1.000000000000000E-06
(PID.TID 0000.0001)     ;
(PID.TID 0000.0001)  max shelf draft for analytic init (m) = /* user defined parameter */
(PID.TID 0000.0001)                 0.000000000000000E+00
(PID.TID 0000.0001)     ;
(PID.TID 0000.0001)  min shelf draft for analytic init (m) = /* user defined parameter */
(PID.TID 0000.0001)                 0.000000000000000E+00
(PID.TID 0000.0001)     ;
(PID.TID 0000.0001)  shelf extent for analytic init (km) = /* user defined parameter */
(PID.TID 0000.0001)                 0.000000000000000E+00
(PID.TID 0000.0001)     ;
(PID.TID 0000.0001)  slope scale for analytic init (km) = /* user defined parameter */
(PID.TID 0000.0001)                 0.000000000000000E+00
(PID.TID 0000.0001)     ;
(PID.TID 0000.0001)  flat shelf width for analytic init (km) = /* user defined parameter */
(PID.TID 0000.0001)                 0.000000000000000E+00
(PID.TID 0000.0001)     ;
(PID.TID 0000.0001)  flow direction for analytic init = /* user defined parameter */
(PID.TID 0000.0001)                 0.000000000000000E+00
(PID.TID 0000.0001)     ;
(PID.TID 0000.0001)  min range on no bd for no-slip (km) = /* user defined parameter */
(PID.TID 0000.0001)                -2.000000000000000E+02
(PID.TID 0000.0001)     ;
(PID.TID 0000.0001)  max range on no bd for no-slip (km) = /* user defined parameter */
(PID.TID 0000.0001)                 0.000000000000000E+00
(PID.TID 0000.0001)     ;
(PID.TID 0000.0001)  min range on so bd for no-slip (km) = /* user defined parameter */
(PID.TID 0000.0001)                -2.000000000000000E+02
(PID.TID 0000.0001)     ;
(PID.TID 0000.0001)  max range on so bd for no-slip (km) = /* user defined parameter */
(PID.TID 0000.0001)                 0.000000000000000E+00
(PID.TID 0000.0001)     ;
(PID.TID 0000.0001)  min range on east bd for no-slip (km) = /* user defined parameter */
(PID.TID 0000.0001)                -1.800000000000000E+02
(PID.TID 0000.0001)     ;
(PID.TID 0000.0001)  max range on east bd for no-slip (km) = /* user defined parameter */
(PID.TID 0000.0001)                 0.000000000000000E+00
(PID.TID 0000.0001)     ;
(PID.TID 0000.0001)  min range on west bd for no-slip (km) = /* user defined parameter */
(PID.TID 0000.0001)                 0.000000000000000E+00
(PID.TID 0000.0001)     ;
(PID.TID 0000.0001)  max range on west bd for no-slip (km) = /* user defined parameter */
(PID.TID 0000.0001)                 0.000000000000000E+00
(PID.TID 0000.0001)     ;
(PID.TID 0000.0001)  min range on no bd for no-stress (km) = /* user defined parameter */
(PID.TID 0000.0001)                 0.000000000000000E+00
(PID.TID 0000.0001)     ;
(PID.TID 0000.0001)  max range on no bd for no-stress (km) = /* user defined parameter */
(PID.TID 0000.0001)                 0.000000000000000E+00
(PID.TID 0000.0001)     ;
(PID.TID 0000.0001)  min range on so bd for no-stress (km) = /* user defined parameter */
(PID.TID 0000.0001)                 0.000000000000000E+00
(PID.TID 0000.0001)     ;
(PID.TID 0000.0001)  max range on so bd for no-stress (km) = /* user defined parameter */
(PID.TID 0000.0001)                 0.000000000000000E+00
(PID.TID 0000.0001)     ;
(PID.TID 0000.0001)  min range on east bd for no-stress (km) = /* user defined parameter */
(PID.TID 0000.0001)                -1.000000000000000E+00
(PID.TID 0000.0001)     ;
(PID.TID 0000.0001)  max range on east bd for no-stress (km) = /* user defined parameter */
(PID.TID 0000.0001)                -1.000000000000000E+00
(PID.TID 0000.0001)     ;
(PID.TID 0000.0001)  min range on west bd for no-stress (km) = /* user defined parameter */
(PID.TID 0000.0001)                -1.000000000000000E+00
(PID.TID 0000.0001)     ;
(PID.TID 0000.0001)  max range on west bd for no-stress (km) = /* user defined parameter */
(PID.TID 0000.0001)                -1.000000000000000E+00
(PID.TID 0000.0001)     ;
(PID.TID 0000.0001)  min range on no bd for FluxBdry (km) = /* user defined parameter */
(PID.TID 0000.0001)                -1.000000000000000E+00
(PID.TID 0000.0001)     ;
(PID.TID 0000.0001)  max range on no bd for FluxBdry (km) = /* user defined parameter */
(PID.TID 0000.0001)                -1.000000000000000E+00
(PID.TID 0000.0001)     ;
(PID.TID 0000.0001)  min range on so bd for FluxBdry (km) = /* user defined parameter */
(PID.TID 0000.0001)                -1.000000000000000E+00
(PID.TID 0000.0001)     ;
(PID.TID 0000.0001)  max range on so bd for FluxBdry (km) = /* user defined parameter */
(PID.TID 0000.0001)                -1.000000000000000E+00
(PID.TID 0000.0001)     ;
(PID.TID 0000.0001)  min range on east bd for FluxBdry (km) = /* user defined parameter */
(PID.TID 0000.0001)                -1.800000000000000E+02
(PID.TID 0000.0001)     ;
(PID.TID 0000.0001)  max range on east bd for FluxBdry (km) = /* user defined parameter */
(PID.TID 0000.0001)                 0.000000000000000E+00
(PID.TID 0000.0001)     ;
(PID.TID 0000.0001)  min range on west bd for FluxBdry (km) = /* user defined parameter */
(PID.TID 0000.0001)                 0.000000000000000E+00
(PID.TID 0000.0001)     ;
(PID.TID 0000.0001)  max range on west bd for FluxBdry (km) = /* user defined parameter */
(PID.TID 0000.0001)                 0.000000000000000E+00
(PID.TID 0000.0001)     ;
(PID.TID 0000.0001)  min range on no bd for Dirich (km) = /* user defined parameter */
(PID.TID 0000.0001)                -1.000000000000000E+00
(PID.TID 0000.0001)     ;
(PID.TID 0000.0001)  max range on no bd for Dirich (km) = /* user defined parameter */
(PID.TID 0000.0001)                -1.000000000000000E+00
(PID.TID 0000.0001)     ;
(PID.TID 0000.0001)  min range on so bd for Dirich (km) = /* user defined parameter */
(PID.TID 0000.0001)                -1.000000000000000E+00
(PID.TID 0000.0001)     ;
(PID.TID 0000.0001)  max range on so bd for Dirich (km) = /* user defined parameter */
(PID.TID 0000.0001)                -1.000000000000000E+00
(PID.TID 0000.0001)     ;
(PID.TID 0000.0001)  min range on east bd for Dirich (km) = /* user defined parameter */
(PID.TID 0000.0001)                -1.000000000000000E+00
(PID.TID 0000.0001)     ;
(PID.TID 0000.0001)  max range on east bd for Dirich (km) = /* user defined parameter */
(PID.TID 0000.0001)                -1.000000000000000E+00
(PID.TID 0000.0001)     ;
(PID.TID 0000.0001)  min range on west bd for Dirich (km) = /* user defined parameter */
(PID.TID 0000.0001)                -1.000000000000000E+00
(PID.TID 0000.0001)     ;
(PID.TID 0000.0001)  max range on west bd for Dirich (km) = /* user defined parameter */
(PID.TID 0000.0001)                -1.000000000000000E+00
(PID.TID 0000.0001)     ;
(PID.TID 0000.0001)  min range on no bd for CFBC (km) = /* user defined parameter */
(PID.TID 0000.0001)                -1.000000000000000E+00
(PID.TID 0000.0001)     ;
(PID.TID 0000.0001)  max range on no bd for CFBC (km) = /* user defined parameter */
(PID.TID 0000.0001)                -1.000000000000000E+00
(PID.TID 0000.0001)     ;
(PID.TID 0000.0001)  min range on so bd for CFBC (km) = /* user defined parameter */
(PID.TID 0000.0001)                -1.000000000000000E+00
(PID.TID 0000.0001)     ;
(PID.TID 0000.0001)  max range on so bd for CFBC (km) = /* user defined parameter */
(PID.TID 0000.0001)                -1.000000000000000E+00
(PID.TID 0000.0001)     ;
(PID.TID 0000.0001)  min range on east bd for CFBC (km) = /* user defined parameter */
(PID.TID 0000.0001)                 0.000000000000000E+00
(PID.TID 0000.0001)     ;
(PID.TID 0000.0001)  max range on east bd for CFBC (km) = /* user defined parameter */
(PID.TID 0000.0001)                 0.000000000000000E+00
(PID.TID 0000.0001)     ;
(PID.TID 0000.0001)  min range on west bd for CFBC (km) = /* user defined parameter */
(PID.TID 0000.0001)                -1.800000000000000E+02
(PID.TID 0000.0001)     ;
(PID.TID 0000.0001)  max range on west bd for CFBC (km) = /* user defined parameter */
(PID.TID 0000.0001)                 0.000000000000000E+00
(PID.TID 0000.0001)     ;
(PID.TID 0000.0001)  val (m^2/a) for north flux bdry = /* user defined parameter */
(PID.TID 0000.0001)                 0.000000000000000E+00
(PID.TID 0000.0001)     ;
(PID.TID 0000.0001)  val (m^2/a) for south flux bdry = /* user defined parameter */
(PID.TID 0000.0001)                 0.000000000000000E+00
(PID.TID 0000.0001)     ;
(PID.TID 0000.0001)  val (m^2/a) for east flux bdry = /* user defined parameter */
(PID.TID 0000.0001)                 1.500000000000000E+06
(PID.TID 0000.0001)     ;
(PID.TID 0000.0001)  val (m^2/a) for west flux bdry = /* user defined parameter */
(PID.TID 0000.0001)                 0.000000000000000E+00
(PID.TID 0000.0001)     ;
(PID.TID 0000.0001)  streamice_dump_mdsio = /* user defined parameter */
(PID.TID 0000.0001)                   T
(PID.TID 0000.0001)     ;
(PID.TID 0000.0001)  streamice_dump_mdsio = /* user defined parameter */
(PID.TID 0000.0001)                   T
(PID.TID 0000.0001)     ;
(PID.TID 0000.0001)  streamice_dump_mnc = /* user defined parameter */
(PID.TID 0000.0001)                   F
(PID.TID 0000.0001)     ;
(PID.TID 0000.0001)  streamice_tave_mnc = /* user defined parameter */
(PID.TID 0000.0001)                   F
(PID.TID 0000.0001)     ;
(PID.TID 0000.0001)  streamice_move_front = /* user defined parameter */
(PID.TID 0000.0001)                   F
(PID.TID 0000.0001)     ;
(PID.TID 0000.0001)  streamice_calve_to_mask = /* user defined parameter */
(PID.TID 0000.0001)                   F
(PID.TID 0000.0001)     ;
(PID.TID 0000.0001) STREAMICEthickInit = /* user defined parameter */
(PID.TID 0000.0001)               'FILE'
(PID.TID 0000.0001)     ;
(PID.TID 0000.0001) STREAMICEthickFile = /* user defined parameter */
(PID.TID 0000.0001)               'hinit666.box'
(PID.TID 0000.0001)     ;
(PID.TID 0000.0001) STREAMICEcalveMaskFile = /* user defined parameter */
(PID.TID 0000.0001)               ''
(PID.TID 0000.0001)     ;
(PID.TID 0000.0001) GAD_CHECK: #define ALLOW_GENERIC_ADVDIFF
(PID.TID 0000.0001) // =======================================================
(PID.TID 0000.0001) // Check Model config. (CONFIG_CHECK):
(PID.TID 0000.0001) // CONFIG_CHECK : Normal End
(PID.TID 0000.0001) // =======================================================
(PID.TID 0000.0001) 
(PID.TID 0000.0001)  nRecords = 783 ; filePrec =  64 ; fileIter =      8640
(PID.TID 0000.0001)     nDims =   2 , dims:
(PID.TID 0000.0001)    1:   3   1   3
(PID.TID 0000.0001)    2: 400   1 400
(PID.TID 0000.0001)     nFlds =   9 , nFl3D =   6 , fields:
(PID.TID 0000.0001)  >Uvel    < >Vvel    < >Theta   < >Salt    < >GuNm1   < >GvNm1   < >EtaN    < >dEtaHdt < >EtaH    <
(PID.TID 0000.0001) missingVal=  1.00000000000000E+00 ; nTimRec =   1 , timeList:
(PID.TID 0000.0001)   2.592000000000E+06
(PID.TID 0000.0001) READ_MFLDS_3D_RL: read field: "Uvel    ", #   1 in fldList, rec=   1
(PID.TID 0000.0001) READ_MFLDS_3D_RL: read field: "Vvel    ", #   2 in fldList, rec=   2
(PID.TID 0000.0001) READ_MFLDS_3D_RL: read field: "Theta   ", #   3 in fldList, rec=   3
(PID.TID 0000.0001) READ_MFLDS_3D_RL: read field: "Salt    ", #   4 in fldList, rec=   4
(PID.TID 0000.0001) READ_MFLDS_3D_RL: read field: "GuNm1   ", #   5 in fldList, rec=   5
(PID.TID 0000.0001) READ_MFLDS_3D_RL: read field: "GvNm1   ", #   6 in fldList, rec=   6
(PID.TID 0000.0001) READ_MFLDS_3D_RL: read field: "EtaN    ", #   7 in fldList, rec= 781
(PID.TID 0000.0001) READ_MFLDS_3D_RL: read field: "dEtaHdt ", #   8 in fldList, rec= 782
(PID.TID 0000.0001) READ_MFLDS_3D_RL: read field: "EtaH    ", #   9 in fldList, rec= 783
(PID.TID 0000.0001) READ_MFLDS_CHECK: - normal end ; reset MFLDS file-name: pickup.0000008640
(PID.TID 0000.0001)  nRecords =   3 ; filePrec =  64 ; fileIter =      8640
(PID.TID 0000.0001)     nDims =   2 , dims:
(PID.TID 0000.0001)    1:   3   1   3
(PID.TID 0000.0001)    2: 400   1 400
(PID.TID 0000.0001)     nFlds =   3 , nFl3D =   0 , fields:
(PID.TID 0000.0001)  >SHI_mass< >R_Shelfi< >RMinSurf<
(PID.TID 0000.0001) missingVal=  1.00000000000000E+00 ; nTimRec =   1 , timeList:
(PID.TID 0000.0001)   2.592000000000E+06
(PID.TID 0000.0001) READ_MFLDS_3D_RL: read field: "SHI_mass", #   1 in fldList, rec=   1
(PID.TID 0000.0001) READ_MFLDS_3D_RL: read field: "R_Shelfi", #   2 in fldList, rec=   2
(PID.TID 0000.0001) READ_MFLDS_3D_RL: read field: "RMinSurf", #   3 in fldList, rec=   3
(PID.TID 0000.0001) READ_MFLDS_CHECK: - normal end ; reset MFLDS file-name: pickup_shelfice.0000008640
(PID.TID 0000.0001)  nRecords = 139 ; filePrec =  64 ; fileIter =      8640
(PID.TID 0000.0001)     nDims =   2 , dims:
(PID.TID 0000.0001)    1:   3   1   3
(PID.TID 0000.0001)    2: 400   1 400
(PID.TID 0000.0001)     nFlds =  10 , nFl3D =   1 , fields:
(PID.TID 0000.0001)  >visc3d  < >SI_area < >SI_hmask< >SI_uvel < >SI_vvel < >SI_thick< >SI_betaF< >SI_visc < >SI_taubx< >SI_tauby<
(PID.TID 0000.0001) missingVal=  1.00000000000000E+00 ; nTimRec =   1 , timeList:
(PID.TID 0000.0001)   2.592000000000E+06
(PID.TID 0000.0001) READ_MFLDS_3D_RL: read field: "visc3d  ", #   1 in fldList, rec=   1
(PID.TID 0000.0001) READ_MFLDS_3D_RL: read field: "SI_area ", #   2 in fldList, rec= 131
(PID.TID 0000.0001) READ_MFLDS_LEV_RS: read field: "SI_hmask", #   3 in fldList, rec= 132
(PID.TID 0000.0001) READ_MFLDS_3D_RL: read field: "SI_uvel ", #   4 in fldList, rec= 133
(PID.TID 0000.0001) READ_MFLDS_3D_RL: read field: "SI_vvel ", #   5 in fldList, rec= 134
(PID.TID 0000.0001) READ_MFLDS_3D_RL: read field: "SI_thick", #   6 in fldList, rec= 135
(PID.TID 0000.0001) READ_MFLDS_3D_RL: read field: "SI_betaF", #   7 in fldList, rec= 136
(PID.TID 0000.0001) READ_MFLDS_3D_RL: read field: "SI_visc ", #   8 in fldList, rec= 137
(PID.TID 0000.0001) READ_MFLDS_3D_RL: read field: "SI_taubx", #   9 in fldList, rec= 138
(PID.TID 0000.0001) READ_MFLDS_3D_RL: read field: "SI_tauby", #  10 in fldList, rec= 139
(PID.TID 0000.0001) READ_MFLDS_CHECK: - normal end ; reset MFLDS file-name: pickup_streamice.0000008640
(PID.TID 0000.0001)  OBCS_FIELDS_LOAD: Reading initial data:      8640  2.592000000000E+06
 SURF_ADJUSTMENT: Iter=        -1 Nb_pts,Vol=         6  1.51163853E+07
 SURF_ADJUSTMENT: Iter=      8640 Nb_pts,Vol=         6  1.51145490E+07
(PID.TID 0000.0001) // =======================================================
(PID.TID 0000.0001) // Model current state
(PID.TID 0000.0001) // =======================================================
(PID.TID 0000.0001) 
(PID.TID 0000.0001) // =======================================================
(PID.TID 0000.0001) // Begin MONITOR dynamic field statistics
(PID.TID 0000.0001) // =======================================================
(PID.TID 0000.0001) %MON time_tsnumber                =                  8640
(PID.TID 0000.0001) %MON time_secondsf                =   2.5920000000000E+06
(PID.TID 0000.0001) %MON dynstat_eta_max              =   4.2549069657226E+00
(PID.TID 0000.0001) %MON dynstat_eta_min              =  -8.8340524745605E+00
(PID.TID 0000.0001) %MON dynstat_eta_mean             =  -2.0659155629973E+00
(PID.TID 0000.0001) %MON dynstat_eta_sd               =   2.8218748491669E+00
(PID.TID 0000.0001) %MON dynstat_eta_del2             =   1.4803253544713E-01
(PID.TID 0000.0001) %MON dynstat_uvel_max             =   7.8284402367779E-14
(PID.TID 0000.0001) %MON dynstat_uvel_min             =  -8.7236028030884E-14
(PID.TID 0000.0001) %MON dynstat_uvel_mean            =   9.6196754899463E-29
(PID.TID 0000.0001) %MON dynstat_uvel_sd              =   1.6754231047556E-14
(PID.TID 0000.0001) %MON dynstat_uvel_del2            =   2.6782485839627E-16
(PID.TID 0000.0001) %MON dynstat_vvel_max             =   1.3447755708497E-01
(PID.TID 0000.0001) %MON dynstat_vvel_min             =  -6.3528644582152E-02
(PID.TID 0000.0001) %MON dynstat_vvel_mean            =  -1.1606497079418E-05
(PID.TID 0000.0001) %MON dynstat_vvel_sd              =   3.1420660838807E-02
(PID.TID 0000.0001) %MON dynstat_vvel_del2            =   9.0177171119074E-06
(PID.TID 0000.0001) %MON dynstat_wvel_max             =   3.8344062293763E-03
(PID.TID 0000.0001) %MON dynstat_wvel_min             =  -2.3909199508354E-03
(PID.TID 0000.0001) %MON dynstat_wvel_mean            =   3.2072335733433E-05
(PID.TID 0000.0001) %MON dynstat_wvel_sd              =   2.7755054517131E-04
(PID.TID 0000.0001) %MON dynstat_wvel_del2            =   1.8089401378451E-06
(PID.TID 0000.0001) %MON dynstat_theta_max            =   1.1621664450527E+00
(PID.TID 0000.0001) %MON dynstat_theta_min            =  -2.5932647775466E+00
(PID.TID 0000.0001) %MON dynstat_theta_mean           =  -5.4756211762458E-02
(PID.TID 0000.0001) %MON dynstat_theta_sd             =   8.5945991758952E-01
(PID.TID 0000.0001) %MON dynstat_theta_del2           =   2.3519798369088E-05
(PID.TID 0000.0001) %MON dynstat_salt_max             =   3.4691216695525E+01
(PID.TID 0000.0001) %MON dynstat_salt_min             =   3.3621546490968E+01
(PID.TID 0000.0001) %MON dynstat_salt_mean            =   3.4481153386286E+01
(PID.TID 0000.0001) %MON dynstat_salt_sd              =   1.4496865670062E-01
(PID.TID 0000.0001) %MON dynstat_salt_del2            =   4.6059068097189E-06
(PID.TID 0000.0001) %MON advcfl_uvel_max              =   6.9328424863210E-15
(PID.TID 0000.0001) %MON advcfl_vvel_max              =   4.6447702366031E-02
(PID.TID 0000.0001) %MON advcfl_wvel_max              =   1.1503218688129E-01
(PID.TID 0000.0001) %MON advcfl_W_hf_max              =   1.1503218688129E-01
(PID.TID 0000.0001) %MON pe_b_mean                    =   1.8098586371980E-01
(PID.TID 0000.0001) %MON ke_max                       =   9.0198154484778E-03
(PID.TID 0000.0001) %MON ke_mean                      =   4.9226064515067E-04
(PID.TID 0000.0001) %MON ke_vol                       =   1.3260326562556E+12
(PID.TID 0000.0001) // =======================================================
(PID.TID 0000.0001) // End MONITOR dynamic field statistics
(PID.TID 0000.0001) // =======================================================
(PID.TID 0000.0001) // =======================================================
(PID.TID 0000.0001) // Begin OBCS MONITOR field statistics
(PID.TID 0000.0001) // =======================================================
(PID.TID 0000.0001) %MON obc_N_vVel_max               =   2.5000000000000E-02
(PID.TID 0000.0001) %MON obc_N_vVel_min               =  -2.5000000000000E-02
(PID.TID 0000.0001) %MON obc_N_vVel_mean              =   6.1084074558395E-19
(PID.TID 0000.0001) %MON obc_N_vVel_sd                =   1.3846063814170E-02
(PID.TID 0000.0001) %MON obc_N_vVel_Int               =   7.7307049650699E-12
(PID.TID 0000.0001) // =======================================================
(PID.TID 0000.0001) // End OBCS MONITOR field statistics
(PID.TID 0000.0001) // =======================================================
(PID.TID 0000.0001) INI_CG2D: CG2D normalisation factor =  2.0597897904647066E-04
(PID.TID 0000.0001) 
 SURF_ADJUSTMENT: Iter=      8640 Nb_pts,Vol=       105  2.07787857E+09
 SURF_ADJUSTMENT: Iter=      8640 Nb_pts,Vol=       105  2.07787857E+09
(PID.TID 0000.0001) streamice solo_time_step: nIter0000008640 0.82E-01seconds
(PID.TID 0000.0001) CONJ GRAD INIT RESID LOCAL, 11 0.1883359E+18
(PID.TID 0000.0001) CONJ GRAD INIT RESID,  0.4339768E+09
(PID.TID 0000.0001) BEGINNING MAIN CG LOOP
 GOT HERE CG ITERATIONS         299
(PID.TID 0000.0001) streamice linear solve number    1  299 iterations
(PID.TID 0000.0001) STREAMICE_FP_ERROR =  4.92352585733897E-02
(PID.TID 0000.0001) VELOCITY SOLVE NOT CONVERGED IN     1 iterations
 time_step_loc   9.51293759512937678E-006
(PID.TID 0000.0001) END STREAMICE_ADVECT_THICKNESS
(PID.TID 0000.0001) SOLVE_FOR_PRESSURE: putPmEinXvector =    F
 cg2d: Sum(rhs),rhsMax =   5.44827620424861E-01  4.66252933184989E+01
(PID.TID 0000.0001)      cg2d_init_res =   5.83911168767068E-05
(PID.TID 0000.0001)      cg2d_iters(min,last) =      -1     110
(PID.TID 0000.0001)      cg2d_last_res =   7.73815396119889E-12
 SURF_ADJUSTMENT: Iter=      8641 Nb_pts,Vol=       105  2.07783647E+09
(PID.TID 0000.0001) // =======================================================
(PID.TID 0000.0001) // Begin MONITOR dynamic field statistics
(PID.TID 0000.0001) // =======================================================
(PID.TID 0000.0001) %MON time_tsnumber                =                  8641
(PID.TID 0000.0001) %MON time_secondsf                =   2.5923000000000E+06
(PID.TID 0000.0001) %MON dynstat_eta_max              =   4.2549088699633E+00
(PID.TID 0000.0001) %MON dynstat_eta_min              =  -7.5832285106779E+00
(PID.TID 0000.0001) %MON dynstat_eta_mean             =  -2.7746094724839E+00
(PID.TID 0000.0001) %MON dynstat_eta_sd               =   2.5436143474628E+00
(PID.TID 0000.0001) %MON dynstat_eta_del2             =   1.5055853584489E-01
(PID.TID 0000.0001) %MON dynstat_uvel_max             =   8.6872724340249E-14
(PID.TID 0000.0001) %MON dynstat_uvel_min             =  -9.7776129042719E-14
(PID.TID 0000.0001) %MON dynstat_uvel_mean            =   1.9421668156658E-19
(PID.TID 0000.0001) %MON dynstat_uvel_sd              =   1.6259745378449E-14
(PID.TID 0000.0001) %MON dynstat_uvel_del2            =   2.6207614569248E-16
(PID.TID 0000.0001) %MON dynstat_vvel_max             =   1.3445082565943E-01
(PID.TID 0000.0001) %MON dynstat_vvel_min             =  -6.3557397358797E-02
(PID.TID 0000.0001) %MON dynstat_vvel_mean            =  -1.8889525719145E-05
(PID.TID 0000.0001) %MON dynstat_vvel_sd              =   3.1397698546859E-02
(PID.TID 0000.0001) %MON dynstat_vvel_del2            =   8.8035196531658E-06
(PID.TID 0000.0001) %MON dynstat_wvel_max             =   3.8293002708585E-03
(PID.TID 0000.0001) %MON dynstat_wvel_min             =  -2.3912830013951E-03
(PID.TID 0000.0001) %MON dynstat_wvel_mean            =   3.1927952606717E-05
(PID.TID 0000.0001) %MON dynstat_wvel_sd              =   2.7731995025188E-04
(PID.TID 0000.0001) %MON dynstat_wvel_del2            =   1.8068617735968E-06
(PID.TID 0000.0001) %MON dynstat_theta_max            =   1.1621659942186E+00
(PID.TID 0000.0001) %MON dynstat_theta_min            =  -2.5931895510113E+00
(PID.TID 0000.0001) %MON dynstat_theta_mean           =  -5.7734498873592E-02
(PID.TID 0000.0001) %MON dynstat_theta_sd             =   8.6254628999942E-01
(PID.TID 0000.0001) %MON dynstat_theta_del2           =   5.4769142137560E-05
(PID.TID 0000.0001) %MON dynstat_salt_max             =   3.4691216623940E+01
(PID.TID 0000.0001) %MON dynstat_salt_min             =   3.3621551522221E+01
(PID.TID 0000.0001) %MON dynstat_salt_mean            =   3.4480144418751E+01
(PID.TID 0000.0001) %MON dynstat_salt_sd              =   1.4732430934008E-01
(PID.TID 0000.0001) %MON dynstat_salt_del2            =   1.5285734558759E-05
(PID.TID 0000.0001) %MON advcfl_uvel_max              =   7.7893051229786E-15
(PID.TID 0000.0001) %MON advcfl_vvel_max              =   4.6438469499789E-02
(PID.TID 0000.0001) %MON advcfl_wvel_max              =   1.1487900812575E-01
(PID.TID 0000.0001) %MON advcfl_W_hf_max              =   1.1487900812575E-01
(PID.TID 0000.0001) %MON pe_b_mean                    =  -1.7478547494876E+00
(PID.TID 0000.0001) %MON ke_max                       =   9.0162137501942E-03
(PID.TID 0000.0001) %MON ke_mean                      =   4.9118820911204E-04
(PID.TID 0000.0001) %MON ke_vol                       =   1.3280954184378E+12
(PID.TID 0000.0001) // =======================================================
(PID.TID 0000.0001) // End MONITOR dynamic field statistics
(PID.TID 0000.0001) // =======================================================
(PID.TID 0000.0001) // =======================================================
(PID.TID 0000.0001) // Begin OBCS MONITOR field statistics
(PID.TID 0000.0001) // =======================================================
(PID.TID 0000.0001) %MON obc_N_vVel_max               =   2.5000000000000E-02
(PID.TID 0000.0001) %MON obc_N_vVel_min               =  -2.5000000000000E-02
(PID.TID 0000.0001) %MON obc_N_vVel_mean              =   6.1084074558395E-19
(PID.TID 0000.0001) %MON obc_N_vVel_sd                =   1.3846063814170E-02
(PID.TID 0000.0001) %MON obc_N_vVel_Int               =   7.7307049650699E-12
(PID.TID 0000.0001) // =======================================================
(PID.TID 0000.0001) // End OBCS MONITOR field statistics
(PID.TID 0000.0001) // =======================================================
(PID.TID 0000.0001) streamice solo_time_step: nIter0000008641 0.82E-01seconds
 time_step_loc   9.51293759512937678E-006
(PID.TID 0000.0001) END STREAMICE_ADVECT_THICKNESS
 cg2d: Sum(rhs),rhsMax =   5.44826888709248E-01  4.66253559373893E+01
(PID.TID 0000.0001)      cg2d_init_res =   4.64081252587134E-05
(PID.TID 0000.0001)      cg2d_iters(min,last) =      -1     110
(PID.TID 0000.0001)      cg2d_last_res =   5.52793197170047E-12
 SURF_ADJUSTMENT: Iter=      8642 Nb_pts,Vol=       105  2.07782615E+09
(PID.TID 0000.0001) // =======================================================
(PID.TID 0000.0001) // Begin MONITOR dynamic field statistics
(PID.TID 0000.0001) // =======================================================
(PID.TID 0000.0001) %MON time_tsnumber                =                  8642
(PID.TID 0000.0001) %MON time_secondsf                =   2.5926000000000E+06
(PID.TID 0000.0001) %MON dynstat_eta_max              =   4.2549184400914E+00
(PID.TID 0000.0001) %MON dynstat_eta_min              =  -7.5831227777063E+00
(PID.TID 0000.0001) %MON dynstat_eta_mean             =  -2.7746094724839E+00
(PID.TID 0000.0001) %MON dynstat_eta_sd               =   2.5436121418128E+00
(PID.TID 0000.0001) %MON dynstat_eta_del2             =   1.5055842810725E-01
(PID.TID 0000.0001) %MON dynstat_uvel_max             =   1.0864617415208E-13
(PID.TID 0000.0001) %MON dynstat_uvel_min             =  -1.0477992006403E-13
(PID.TID 0000.0001) %MON dynstat_uvel_mean            =   1.9322074063346E-19
(PID.TID 0000.0001) %MON dynstat_uvel_sd              =   1.6162228371912E-14
(PID.TID 0000.0001) %MON dynstat_uvel_del2            =   2.6099946989148E-16
(PID.TID 0000.0001) %MON dynstat_vvel_max             =   1.3446584288869E-01
(PID.TID 0000.0001) %MON dynstat_vvel_min             =  -6.3550100247205E-02
(PID.TID 0000.0001) %MON dynstat_vvel_mean            =  -1.8197184109384E-05
(PID.TID 0000.0001) %MON dynstat_vvel_sd              =   3.1397781169223E-02
(PID.TID 0000.0001) %MON dynstat_vvel_del2            =   8.8254664860370E-06
(PID.TID 0000.0001) %MON dynstat_wvel_max             =   3.8320478790212E-03
(PID.TID 0000.0001) %MON dynstat_wvel_min             =  -2.3916508890041E-03
(PID.TID 0000.0001) %MON dynstat_wvel_mean            =   3.1955043372306E-05
(PID.TID 0000.0001) %MON dynstat_wvel_sd              =   2.7734442607312E-04
(PID.TID 0000.0001) %MON dynstat_wvel_del2            =   1.8068958709696E-06
(PID.TID 0000.0001) %MON dynstat_theta_max            =   1.1621655428975E+00
(PID.TID 0000.0001) %MON dynstat_theta_min            =  -2.5931572318185E+00
(PID.TID 0000.0001) %MON dynstat_theta_mean           =  -5.7715830542988E-02
(PID.TID 0000.0001) %MON dynstat_theta_sd             =   8.6253866682267E-01
(PID.TID 0000.0001) %MON dynstat_theta_del2           =   5.0891880925834E-05
(PID.TID 0000.0001) %MON dynstat_salt_max             =   3.4691216552279E+01
(PID.TID 0000.0001) %MON dynstat_salt_min             =   3.3621556551880E+01
(PID.TID 0000.0001) %MON dynstat_salt_mean            =   3.4480145498697E+01
(PID.TID 0000.0001) %MON dynstat_salt_sd              =   1.4732257881503E-01
(PID.TID 0000.0001) %MON dynstat_salt_del2            =   1.4071457812014E-05
(PID.TID 0000.0001) %MON advcfl_uvel_max              =   8.6510736562416E-15
(PID.TID 0000.0001) %MON advcfl_vvel_max              =   4.6443656356316E-02
(PID.TID 0000.0001) %MON advcfl_wvel_max              =   1.1496143637064E-01
(PID.TID 0000.0001) %MON advcfl_W_hf_max              =   1.1496143637064E-01
(PID.TID 0000.0001) %MON pe_b_mean                    =  -1.7478341320665E+00
(PID.TID 0000.0001) %MON ke_max                       =   9.0181920408405E-03
(PID.TID 0000.0001) %MON ke_mean                      =   4.9119078003328E-04
(PID.TID 0000.0001) %MON ke_vol                       =   1.3280953763384E+12
(PID.TID 0000.0001) // =======================================================
(PID.TID 0000.0001) // End MONITOR dynamic field statistics
(PID.TID 0000.0001) // =======================================================
(PID.TID 0000.0001) // =======================================================
(PID.TID 0000.0001) // Begin OBCS MONITOR field statistics
(PID.TID 0000.0001) // =======================================================
(PID.TID 0000.0001) %MON obc_N_vVel_max               =   2.5000000000000E-02
(PID.TID 0000.0001) %MON obc_N_vVel_min               =  -2.5000000000000E-02
(PID.TID 0000.0001) %MON obc_N_vVel_mean              =   6.1084074558395E-19
(PID.TID 0000.0001) %MON obc_N_vVel_sd                =   1.3846063814170E-02
(PID.TID 0000.0001) %MON obc_N_vVel_Int               =   7.7307049650699E-12
(PID.TID 0000.0001) // =======================================================
(PID.TID 0000.0001) // End OBCS MONITOR field statistics
(PID.TID 0000.0001) // =======================================================
(PID.TID 0000.0001) streamice solo_time_step: nIter0000008642 0.82E-01seconds
 time_step_loc   9.51293759512937678E-006
(PID.TID 0000.0001) END STREAMICE_ADVECT_THICKNESS
 cg2d: Sum(rhs),rhsMax =   5.44826822033772E-01  4.66253616433633E+01
(PID.TID 0000.0001)      cg2d_init_res =   4.34732589113175E-05
(PID.TID 0000.0001)      cg2d_iters(min,last) =      -1     109
(PID.TID 0000.0001)      cg2d_last_res =   8.52407558691966E-12
 SURF_ADJUSTMENT: Iter=      8643 Nb_pts,Vol=       105  2.07782713E+09
(PID.TID 0000.0001) // =======================================================
(PID.TID 0000.0001) // Begin MONITOR dynamic field statistics
(PID.TID 0000.0001) // =======================================================
(PID.TID 0000.0001) %MON time_tsnumber                =                  8643
(PID.TID 0000.0001) %MON time_secondsf                =   2.5929000000000E+06
(PID.TID 0000.0001) %MON dynstat_eta_max              =   4.2549406952908E+00
(PID.TID 0000.0001) %MON dynstat_eta_min              =  -7.5830165039976E+00
(PID.TID 0000.0001) %MON dynstat_eta_mean             =  -2.7746094724839E+00
(PID.TID 0000.0001) %MON dynstat_eta_sd               =   2.5436131338582E+00
(PID.TID 0000.0001) %MON dynstat_eta_del2             =   1.5055836825243E-01
(PID.TID 0000.0001) %MON dynstat_uvel_max             =   8.5683188372938E-14
(PID.TID 0000.0001) %MON dynstat_uvel_min             =  -1.0416306299274E-13
(PID.TID 0000.0001) %MON dynstat_uvel_mean            =   1.9215964421924E-19
(PID.TID 0000.0001) %MON dynstat_uvel_sd              =   1.6169854415560E-14
(PID.TID 0000.0001) %MON dynstat_uvel_del2            =   2.6044401771083E-16
(PID.TID 0000.0001) %MON dynstat_vvel_max             =   1.3447571619324E-01
(PID.TID 0000.0001) %MON dynstat_vvel_min             =  -6.3548791054846E-02
(PID.TID 0000.0001) %MON dynstat_vvel_mean            =  -1.6233374064063E-05
(PID.TID 0000.0001) %MON dynstat_vvel_sd              =   3.1397904550534E-02
(PID.TID 0000.0001) %MON dynstat_vvel_del2            =   8.9019685562044E-06
(PID.TID 0000.0001) %MON dynstat_wvel_max             =   3.8336436808670E-03
(PID.TID 0000.0001) %MON dynstat_wvel_min             =  -2.3920088257478E-03
(PID.TID 0000.0001) %MON dynstat_wvel_mean            =   3.1979054666678E-05
(PID.TID 0000.0001) %MON dynstat_wvel_sd              =   2.7736128101126E-04
(PID.TID 0000.0001) %MON dynstat_wvel_del2            =   1.8066808795392E-06
(PID.TID 0000.0001) %MON dynstat_theta_max            =   1.1621650913222E+00
(PID.TID 0000.0001) %MON dynstat_theta_min            =  -2.5931498512951E+00
(PID.TID 0000.0001) %MON dynstat_theta_mean           =  -5.7697214425690E-02
(PID.TID 0000.0001) %MON dynstat_theta_sd             =   8.6253120056959E-01
(PID.TID 0000.0001) %MON dynstat_theta_del2           =   4.7549239653699E-05
(PID.TID 0000.0001) %MON dynstat_salt_max             =   3.4691216480577E+01
(PID.TID 0000.0001) %MON dynstat_salt_min             =   3.3621562464887E+01
(PID.TID 0000.0001) %MON dynstat_salt_mean            =   3.4480146562168E+01
(PID.TID 0000.0001) %MON dynstat_salt_sd              =   1.4732094012157E-01
(PID.TID 0000.0001) %MON dynstat_salt_del2            =   1.3015666361490E-05
(PID.TID 0000.0001) %MON advcfl_uvel_max              =   8.9034657152829E-15
(PID.TID 0000.0001) %MON advcfl_vvel_max              =   4.6447066533605E-02
(PID.TID 0000.0001) %MON advcfl_wvel_max              =   1.1500931042601E-01
(PID.TID 0000.0001) %MON advcfl_W_hf_max              =   1.1500931042601E-01
(PID.TID 0000.0001) %MON pe_b_mean                    =  -1.7478160884337E+00
(PID.TID 0000.0001) %MON ke_max                       =   9.0194270815839E-03
(PID.TID 0000.0001) %MON ke_mean                      =   4.9119461044661E-04
(PID.TID 0000.0001) %MON ke_vol                       =   1.3280953660189E+12
(PID.TID 0000.0001) // =======================================================
(PID.TID 0000.0001) // End MONITOR dynamic field statistics
(PID.TID 0000.0001) // =======================================================
(PID.TID 0000.0001) // =======================================================
(PID.TID 0000.0001) // Begin OBCS MONITOR field statistics
(PID.TID 0000.0001) // =======================================================
(PID.TID 0000.0001) %MON obc_N_vVel_max               =   2.5000000000000E-02
(PID.TID 0000.0001) %MON obc_N_vVel_min               =  -2.5000000000000E-02
(PID.TID 0000.0001) %MON obc_N_vVel_mean              =   6.1084074558395E-19
(PID.TID 0000.0001) %MON obc_N_vVel_sd                =   1.3846063814170E-02
(PID.TID 0000.0001) %MON obc_N_vVel_Int               =   7.7307049650699E-12
(PID.TID 0000.0001) // =======================================================
(PID.TID 0000.0001) // End OBCS MONITOR field statistics
(PID.TID 0000.0001) // =======================================================
(PID.TID 0000.0001) streamice solo_time_step: nIter0000008643 0.82E-01seconds
 time_step_loc   9.51293759512937678E-006
(PID.TID 0000.0001) END STREAMICE_ADVECT_THICKNESS
 cg2d: Sum(rhs),rhsMax =   5.44827459677791E-01  4.66253070749263E+01
(PID.TID 0000.0001)      cg2d_init_res =   4.35578461981996E-05
(PID.TID 0000.0001)      cg2d_iters(min,last) =      -1     109
(PID.TID 0000.0001)      cg2d_last_res =   8.30544776092224E-12
 SURF_ADJUSTMENT: Iter=      8644 Nb_pts,Vol=       105  2.07783009E+09
(PID.TID 0000.0001) // =======================================================
(PID.TID 0000.0001) // Begin MONITOR dynamic field statistics
(PID.TID 0000.0001) // =======================================================
(PID.TID 0000.0001) %MON time_tsnumber                =                  8644
(PID.TID 0000.0001) %MON time_secondsf                =   2.5932000000000E+06
(PID.TID 0000.0001) %MON dynstat_eta_max              =   4.2549751134979E+00
(PID.TID 0000.0001) %MON dynstat_eta_min              =  -7.5829172282181E+00
(PID.TID 0000.0001) %MON dynstat_eta_mean             =  -2.7746094724839E+00
(PID.TID 0000.0001) %MON dynstat_eta_sd               =   2.5436146188682E+00
(PID.TID 0000.0001) %MON dynstat_eta_del2             =   1.5055826752004E-01
(PID.TID 0000.0001) %MON dynstat_uvel_max             =   7.8113096515054E-14
(PID.TID 0000.0001) %MON dynstat_uvel_min             =  -9.6080884097376E-14
(PID.TID 0000.0001) %MON dynstat_uvel_mean            =   1.9131690554948E-19
(PID.TID 0000.0001) %MON dynstat_uvel_sd              =   1.7677360123466E-14
(PID.TID 0000.0001) %MON dynstat_uvel_del2            =   2.8274326237380E-16
(PID.TID 0000.0001) %MON dynstat_vvel_max             =   1.3448265540756E-01
(PID.TID 0000.0001) %MON dynstat_vvel_min             =  -6.3548517212420E-02
(PID.TID 0000.0001) %MON dynstat_vvel_mean            =  -1.3637924901389E-05
(PID.TID 0000.0001) %MON dynstat_vvel_sd              =   3.1398109272340E-02
(PID.TID 0000.0001) %MON dynstat_vvel_del2            =   8.9520271454537E-06
(PID.TID 0000.0001) %MON dynstat_wvel_max             =   3.8348515940791E-03
(PID.TID 0000.0001) %MON dynstat_wvel_min             =  -2.3923526173603E-03
(PID.TID 0000.0001) %MON dynstat_wvel_mean            =   3.1999083950283E-05
(PID.TID 0000.0001) %MON dynstat_wvel_sd              =   2.7737751879895E-04
(PID.TID 0000.0001) %MON dynstat_wvel_del2            =   1.8067060664282E-06
(PID.TID 0000.0001) %MON dynstat_theta_max            =   1.1621646398082E+00
(PID.TID 0000.0001) %MON dynstat_theta_min            =  -2.5931405202228E+00
(PID.TID 0000.0001) %MON dynstat_theta_mean           =  -5.7678622871361E-02
(PID.TID 0000.0001) %MON dynstat_theta_sd             =   8.6252384557485E-01
(PID.TID 0000.0001) %MON dynstat_theta_del2           =   4.4667894747549E-05
(PID.TID 0000.0001) %MON dynstat_salt_max             =   3.4691216408884E+01
(PID.TID 0000.0001) %MON dynstat_salt_min             =   3.3621569936532E+01
(PID.TID 0000.0001) %MON dynstat_salt_mean            =   3.4480147618859E+01
(PID.TID 0000.0001) %MON dynstat_salt_sd              =   1.4731936214100E-01
(PID.TID 0000.0001) %MON dynstat_salt_del2            =   1.2096876375503E-05
(PID.TID 0000.0001) %MON advcfl_uvel_max              =   7.6542539579678E-15
(PID.TID 0000.0001) %MON advcfl_vvel_max              =   4.6449463294585E-02
(PID.TID 0000.0001) %MON advcfl_wvel_max              =   1.1504554782237E-01
(PID.TID 0000.0001) %MON advcfl_W_hf_max              =   1.1504554782237E-01
(PID.TID 0000.0001) %MON pe_b_mean                    =  -1.7478002228618E+00
(PID.TID 0000.0001) %MON ke_max                       =   9.0203009312073E-03
(PID.TID 0000.0001) %MON ke_mean                      =   4.9120098284815E-04
(PID.TID 0000.0001) %MON ke_vol                       =   1.3280953670032E+12
(PID.TID 0000.0001) // =======================================================
(PID.TID 0000.0001) // End MONITOR dynamic field statistics
(PID.TID 0000.0001) // =======================================================
(PID.TID 0000.0001) // =======================================================
(PID.TID 0000.0001) // Begin OBCS MONITOR field statistics
(PID.TID 0000.0001) // =======================================================
(PID.TID 0000.0001) %MON obc_N_vVel_max               =   2.5000000000000E-02
(PID.TID 0000.0001) %MON obc_N_vVel_min               =  -2.5000000000000E-02
(PID.TID 0000.0001) %MON obc_N_vVel_mean              =   6.1084074558395E-19
(PID.TID 0000.0001) %MON obc_N_vVel_sd                =   1.3846063814170E-02
(PID.TID 0000.0001) %MON obc_N_vVel_Int               =   7.7307049650699E-12
(PID.TID 0000.0001) // =======================================================
(PID.TID 0000.0001) // End OBCS MONITOR field statistics
(PID.TID 0000.0001) // =======================================================
(PID.TID 0000.0001) streamice solo_time_step: nIter0000008644 0.82E-01seconds
 time_step_loc   9.51293759512937678E-006
(PID.TID 0000.0001) END STREAMICE_ADVECT_THICKNESS
 cg2d: Sum(rhs),rhsMax =   5.44828131140355E-01  4.66252496124965E+01
(PID.TID 0000.0001)      cg2d_init_res =   4.38151032443774E-05
(PID.TID 0000.0001)      cg2d_iters(min,last) =      -1     109
(PID.TID 0000.0001)      cg2d_last_res =   7.75391231195182E-12
 SURF_ADJUSTMENT: Iter=      8645 Nb_pts,Vol=       105  2.07783191E+09
(PID.TID 0000.0001) // =======================================================
(PID.TID 0000.0001) // Begin MONITOR dynamic field statistics
(PID.TID 0000.0001) // =======================================================
(PID.TID 0000.0001) %MON time_tsnumber                =                  8645
(PID.TID 0000.0001) %MON time_secondsf                =   2.5935000000000E+06
(PID.TID 0000.0001) %MON dynstat_eta_max              =   4.2550174985423E+00
(PID.TID 0000.0001) %MON dynstat_eta_min              =  -7.5828249877425E+00
(PID.TID 0000.0001) %MON dynstat_eta_mean             =  -2.7746094724839E+00
(PID.TID 0000.0001) %MON dynstat_eta_sd               =   2.5436155374604E+00
(PID.TID 0000.0001) %MON dynstat_eta_del2             =   1.5055815873045E-01
(PID.TID 0000.0001) %MON dynstat_uvel_max             =   1.2542395943346E-13
(PID.TID 0000.0001) %MON dynstat_uvel_min             =  -8.4778550790044E-14
(PID.TID 0000.0001) %MON dynstat_uvel_mean            =   1.9056632931982E-19
(PID.TID 0000.0001) %MON dynstat_uvel_sd              =   1.8066555840160E-14
(PID.TID 0000.0001) %MON dynstat_uvel_del2            =   2.8808937314546E-16
(PID.TID 0000.0001) %MON dynstat_vvel_max             =   1.3448791061984E-01
(PID.TID 0000.0001) %MON dynstat_vvel_min             =  -6.3549318373149E-02
(PID.TID 0000.0001) %MON dynstat_vvel_mean            =  -1.1243315469395E-05
(PID.TID 0000.0001) %MON dynstat_vvel_sd              =   3.1398355807635E-02
(PID.TID 0000.0001) %MON dynstat_vvel_del2            =   9.0002948411678E-06
(PID.TID 0000.0001) %MON dynstat_wvel_max             =   3.8356549775340E-03
(PID.TID 0000.0001) %MON dynstat_wvel_min             =  -2.3926922017156E-03
(PID.TID 0000.0001) %MON dynstat_wvel_mean            =   3.2015454005110E-05
(PID.TID 0000.0001) %MON dynstat_wvel_sd              =   2.7739188794530E-04
(PID.TID 0000.0001) %MON dynstat_wvel_del2            =   1.8067390791011E-06
(PID.TID 0000.0001) %MON dynstat_theta_max            =   1.1621641884458E+00
(PID.TID 0000.0001) %MON dynstat_theta_min            =  -2.5931296174334E+00
(PID.TID 0000.0001) %MON dynstat_theta_mean           =  -5.7660042522073E-02
(PID.TID 0000.0001) %MON dynstat_theta_sd             =   8.6251657005875E-01
(PID.TID 0000.0001) %MON dynstat_theta_del2           =   4.2184181232322E-05
(PID.TID 0000.0001) %MON dynstat_salt_max             =   3.4691216337216E+01
(PID.TID 0000.0001) %MON dynstat_salt_min             =   3.3621579466852E+01
(PID.TID 0000.0001) %MON dynstat_salt_mean            =   3.4480148672877E+01
(PID.TID 0000.0001) %MON dynstat_salt_sd              =   1.4731782605666E-01
(PID.TID 0000.0001) %MON dynstat_salt_del2            =   1.1296691117335E-05
(PID.TID 0000.0001) %MON advcfl_uvel_max              =   1.0765766007040E-14
(PID.TID 0000.0001) %MON advcfl_vvel_max              =   4.6451278411853E-02
(PID.TID 0000.0001) %MON advcfl_wvel_max              =   1.1506964932602E-01
(PID.TID 0000.0001) %MON advcfl_W_hf_max              =   1.1506964932602E-01
(PID.TID 0000.0001) %MON pe_b_mean                    =  -1.7477861469037E+00
(PID.TID 0000.0001) %MON ke_max                       =   9.0209767521374E-03
(PID.TID 0000.0001) %MON ke_mean                      =   4.9120867319832E-04
(PID.TID 0000.0001) %MON ke_vol                       =   1.3280953699582E+12
(PID.TID 0000.0001) // =======================================================
(PID.TID 0000.0001) // End MONITOR dynamic field statistics
(PID.TID 0000.0001) // =======================================================
(PID.TID 0000.0001) // =======================================================
(PID.TID 0000.0001) // Begin OBCS MONITOR field statistics
(PID.TID 0000.0001) // =======================================================
(PID.TID 0000.0001) %MON obc_N_vVel_max               =   2.5000000000000E-02
(PID.TID 0000.0001) %MON obc_N_vVel_min               =  -2.5000000000000E-02
(PID.TID 0000.0001) %MON obc_N_vVel_mean              =   6.1084074558395E-19
(PID.TID 0000.0001) %MON obc_N_vVel_sd                =   1.3846063814170E-02
(PID.TID 0000.0001) %MON obc_N_vVel_Int               =   7.7307049650699E-12
(PID.TID 0000.0001) // =======================================================
(PID.TID 0000.0001) // End OBCS MONITOR field statistics
(PID.TID 0000.0001) // =======================================================
(PID.TID 0000.0001) streamice solo_time_step: nIter0000008645 0.82E-01seconds
 time_step_loc   9.51293759512937678E-006
(PID.TID 0000.0001) END STREAMICE_ADVECT_THICKNESS
 cg2d: Sum(rhs),rhsMax =   5.44828889000380E-01  4.66251847565142E+01
(PID.TID 0000.0001)      cg2d_init_res =   4.41112940830341E-05
(PID.TID 0000.0001)      cg2d_iters(min,last) =      -1     109
(PID.TID 0000.0001)      cg2d_last_res =   8.87502520973373E-12
 SURF_ADJUSTMENT: Iter=      8646 Nb_pts,Vol=       105  2.07783282E+09
(PID.TID 0000.0001) // =======================================================
(PID.TID 0000.0001) // Begin MONITOR dynamic field statistics
(PID.TID 0000.0001) // =======================================================
(PID.TID 0000.0001) %MON time_tsnumber                =                  8646
(PID.TID 0000.0001) %MON time_secondsf                =   2.5938000000000E+06
(PID.TID 0000.0001) %MON dynstat_eta_max              =   4.2550644615154E+00
(PID.TID 0000.0001) %MON dynstat_eta_min              =  -7.5827364630617E+00
(PID.TID 0000.0001) %MON dynstat_eta_mean             =  -2.7746094724839E+00
(PID.TID 0000.0001) %MON dynstat_eta_sd               =   2.5436159019272E+00
(PID.TID 0000.0001) %MON dynstat_eta_del2             =   1.5055804850094E-01
(PID.TID 0000.0001) %MON dynstat_uvel_max             =   7.9102269801321E-14
(PID.TID 0000.0001) %MON dynstat_uvel_min             =  -8.6061671775081E-14
(PID.TID 0000.0001) %MON dynstat_uvel_mean            =   1.8990302923654E-19
(PID.TID 0000.0001) %MON dynstat_uvel_sd              =   1.7611747155554E-14
(PID.TID 0000.0001) %MON dynstat_uvel_del2            =   2.8083750859405E-16
(PID.TID 0000.0001) %MON dynstat_vvel_max             =   1.3449185614200E-01
(PID.TID 0000.0001) %MON dynstat_vvel_min             =  -6.3551435080224E-02
(PID.TID 0000.0001) %MON dynstat_vvel_mean            =  -9.5574478982139E-06
(PID.TID 0000.0001) %MON dynstat_vvel_sd              =   3.1398635937612E-02
(PID.TID 0000.0001) %MON dynstat_vvel_del2            =   9.0384729517767E-06
(PID.TID 0000.0001) %MON dynstat_wvel_max             =   3.8360706285461E-03
(PID.TID 0000.0001) %MON dynstat_wvel_min             =  -2.3930377859739E-03
(PID.TID 0000.0001) %MON dynstat_wvel_mean            =   3.2027706515749E-05
(PID.TID 0000.0001) %MON dynstat_wvel_sd              =   2.7740136776035E-04
(PID.TID 0000.0001) %MON dynstat_wvel_del2            =   1.8067139077287E-06
(PID.TID 0000.0001) %MON dynstat_theta_max            =   1.1621637371024E+00
(PID.TID 0000.0001) %MON dynstat_theta_min            =  -2.5931174639231E+00
(PID.TID 0000.0001) %MON dynstat_theta_mean           =  -5.7641469349732E-02
(PID.TID 0000.0001) %MON dynstat_theta_sd             =   8.6250935675623E-01
(PID.TID 0000.0001) %MON dynstat_theta_del2           =   4.0042616112373E-05
(PID.TID 0000.0001) %MON dynstat_salt_max             =   3.4691216265551E+01
(PID.TID 0000.0001) %MON dynstat_salt_min             =   3.3621591412181E+01
(PID.TID 0000.0001) %MON dynstat_salt_mean            =   3.4480149725670E+01
(PID.TID 0000.0001) %MON dynstat_salt_sd              =   1.4731632164392E-01
(PID.TID 0000.0001) %MON dynstat_salt_del2            =   1.0599155433970E-05
(PID.TID 0000.0001) %MON advcfl_uvel_max              =   7.0888379237610E-15
(PID.TID 0000.0001) %MON advcfl_vvel_max              =   4.6452641170390E-02
(PID.TID 0000.0001) %MON advcfl_wvel_max              =   1.1508211885638E-01
(PID.TID 0000.0001) %MON advcfl_W_hf_max              =   1.1508211885638E-01
(PID.TID 0000.0001) %MON pe_b_mean                    =  -1.7477734320492E+00
(PID.TID 0000.0001) %MON ke_max                       =   9.0214765706801E-03
(PID.TID 0000.0001) %MON ke_mean                      =   4.9121742777560E-04
(PID.TID 0000.0001) %MON ke_vol                       =   1.3280953717807E+12
(PID.TID 0000.0001) // =======================================================
(PID.TID 0000.0001) // End MONITOR dynamic field statistics
(PID.TID 0000.0001) // =======================================================
(PID.TID 0000.0001) // =======================================================
(PID.TID 0000.0001) // Begin OBCS MONITOR field statistics
(PID.TID 0000.0001) // =======================================================
(PID.TID 0000.0001) %MON obc_N_vVel_max               =   2.5000000000000E-02
(PID.TID 0000.0001) %MON obc_N_vVel_min               =  -2.5000000000000E-02
(PID.TID 0000.0001) %MON obc_N_vVel_mean              =   6.1084074558395E-19
(PID.TID 0000.0001) %MON obc_N_vVel_sd                =   1.3846063814170E-02
(PID.TID 0000.0001) %MON obc_N_vVel_Int               =   7.7307049650699E-12
(PID.TID 0000.0001) // =======================================================
(PID.TID 0000.0001) // End OBCS MONITOR field statistics
(PID.TID 0000.0001) // =======================================================
(PID.TID 0000.0001) INI_CG2D: CG2D normalisation factor =  2.0597897904647066E-04
(PID.TID 0000.0001) 
 SURF_ADJUSTMENT: Iter=      8646 Nb_pts,Vol=       105  2.07783282E+09
 SURF_ADJUSTMENT: Iter=      8646 Nb_pts,Vol=       105  2.07783282E+09
(PID.TID 0000.0001) streamice solo_time_step: nIter0000008646 0.82E-01seconds
 time_step_loc   9.51293759512937678E-006
(PID.TID 0000.0001) END STREAMICE_ADVECT_THICKNESS
 cg2d: Sum(rhs),rhsMax =   5.44829702199158E-01  4.66251151649644E+01
(PID.TID 0000.0001)      cg2d_init_res =   4.43871368681484E-05
(PID.TID 0000.0001)      cg2d_iters(min,last) =      -1     109
(PID.TID 0000.0001)      cg2d_last_res =   9.20200058859512E-12
 SURF_ADJUSTMENT: Iter=      8647 Nb_pts,Vol=       105  2.07783361E+09
(PID.TID 0000.0001) // =======================================================
(PID.TID 0000.0001) // Begin MONITOR dynamic field statistics
(PID.TID 0000.0001) // =======================================================
(PID.TID 0000.0001) %MON time_tsnumber                =                  8647
(PID.TID 0000.0001) %MON time_secondsf                =   2.5941000000000E+06
(PID.TID 0000.0001) %MON dynstat_eta_max              =   4.2551149218623E+00
(PID.TID 0000.0001) %MON dynstat_eta_min              =  -7.5826473402012E+00
(PID.TID 0000.0001) %MON dynstat_eta_mean             =  -2.7746094724839E+00
(PID.TID 0000.0001) %MON dynstat_eta_sd               =   2.5436161040527E+00
(PID.TID 0000.0001) %MON dynstat_eta_del2             =   1.5055793857219E-01
(PID.TID 0000.0001) %MON dynstat_uvel_max             =   1.1380901995554E-13
(PID.TID 0000.0001) %MON dynstat_uvel_min             =  -8.8856032009587E-14
(PID.TID 0000.0001) %MON dynstat_uvel_mean            =   1.8930749991146E-19
(PID.TID 0000.0001) %MON dynstat_uvel_sd              =   1.6348918542645E-14
(PID.TID 0000.0001) %MON dynstat_uvel_del2            =   2.6197299966231E-16
(PID.TID 0000.0001) %MON dynstat_vvel_max             =   1.3449420260533E-01
(PID.TID 0000.0001) %MON dynstat_vvel_min             =  -6.3555085743610E-02
(PID.TID 0000.0001) %MON dynstat_vvel_mean            =  -8.7095671748996E-06
(PID.TID 0000.0001) %MON dynstat_vvel_sd              =   3.1398940419012E-02
(PID.TID 0000.0001) %MON dynstat_vvel_del2            =   9.0702397474847E-06
(PID.TID 0000.0001) %MON dynstat_wvel_max             =   3.8360805688806E-03
(PID.TID 0000.0001) %MON dynstat_wvel_min             =  -2.3933921203379E-03
(PID.TID 0000.0001) %MON dynstat_wvel_mean            =   3.2035189632398E-05
(PID.TID 0000.0001) %MON dynstat_wvel_sd              =   2.7740474645129E-04
(PID.TID 0000.0001) %MON dynstat_wvel_del2            =   1.8066085249110E-06
(PID.TID 0000.0001) %MON dynstat_theta_max            =   1.1621632855909E+00
(PID.TID 0000.0001) %MON dynstat_theta_min            =  -2.5931043316790E+00
(PID.TID 0000.0001) %MON dynstat_theta_mean           =  -5.7622904399634E-02
(PID.TID 0000.0001) %MON dynstat_theta_sd             =   8.6250219624274E-01
(PID.TID 0000.0001) %MON dynstat_theta_del2           =   3.8195000115357E-05
(PID.TID 0000.0001) %MON dynstat_salt_max             =   3.4691216193859E+01
(PID.TID 0000.0001) %MON dynstat_salt_min             =   3.3621606012164E+01
(PID.TID 0000.0001) %MON dynstat_salt_mean            =   3.4480150777025E+01
(PID.TID 0000.0001) %MON dynstat_salt_sd              =   1.4731484385513E-01
(PID.TID 0000.0001) %MON dynstat_salt_del2            =   9.9904661327383E-06
(PID.TID 0000.0001) %MON advcfl_uvel_max              =   9.7585564686592E-15
(PID.TID 0000.0001) %MON advcfl_vvel_max              =   4.6453451624065E-02
(PID.TID 0000.0001) %MON advcfl_wvel_max              =   1.1508241706642E-01
(PID.TID 0000.0001) %MON advcfl_W_hf_max              =   1.1508241706642E-01
(PID.TID 0000.0001) %MON pe_b_mean                    =  -1.7477615776826E+00
(PID.TID 0000.0001) %MON ke_max                       =   9.0217800435010E-03
(PID.TID 0000.0001) %MON ke_mean                      =   4.9122695480515E-04
(PID.TID 0000.0001) %MON ke_vol                       =   1.3280953726947E+12
(PID.TID 0000.0001) // =======================================================
(PID.TID 0000.0001) // End MONITOR dynamic field statistics
(PID.TID 0000.0001) // =======================================================
(PID.TID 0000.0001) // =======================================================
(PID.TID 0000.0001) // Begin OBCS MONITOR field statistics
(PID.TID 0000.0001) // =======================================================
(PID.TID 0000.0001) %MON obc_N_vVel_max               =   2.5000000000000E-02
(PID.TID 0000.0001) %MON obc_N_vVel_min               =  -2.5000000000000E-02
(PID.TID 0000.0001) %MON obc_N_vVel_mean              =   6.1084074558395E-19
(PID.TID 0000.0001) %MON obc_N_vVel_sd                =   1.3846063814170E-02
(PID.TID 0000.0001) %MON obc_N_vVel_Int               =   7.7307049650699E-12
(PID.TID 0000.0001) // =======================================================
(PID.TID 0000.0001) // End OBCS MONITOR field statistics
(PID.TID 0000.0001) // =======================================================
(PID.TID 0000.0001) streamice solo_time_step: nIter0000008647 0.82E-01seconds
 time_step_loc   9.51293759512937678E-006
(PID.TID 0000.0001) END STREAMICE_ADVECT_THICKNESS
 cg2d: Sum(rhs),rhsMax =   5.44830558364466E-01  4.66250418966695E+01
(PID.TID 0000.0001)      cg2d_init_res =   4.46386258295362E-05
(PID.TID 0000.0001)      cg2d_iters(min,last) =      -1     109
(PID.TID 0000.0001)      cg2d_last_res =   9.51643748751089E-12
 SURF_ADJUSTMENT: Iter=      8648 Nb_pts,Vol=       105  2.07783472E+09
(PID.TID 0000.0001) // =======================================================
(PID.TID 0000.0001) // Begin MONITOR dynamic field statistics
(PID.TID 0000.0001) // =======================================================
(PID.TID 0000.0001) %MON time_tsnumber                =                  8648
(PID.TID 0000.0001) %MON time_secondsf                =   2.5944000000000E+06
(PID.TID 0000.0001) %MON dynstat_eta_max              =   4.2551687362707E+00
(PID.TID 0000.0001) %MON dynstat_eta_min              =  -7.5825543778414E+00
(PID.TID 0000.0001) %MON dynstat_eta_mean             =  -2.7746094724839E+00
(PID.TID 0000.0001) %MON dynstat_eta_sd               =   2.5436164223418E+00
(PID.TID 0000.0001) %MON dynstat_eta_del2             =   1.5055782948761E-01
(PID.TID 0000.0001) %MON dynstat_uvel_max             =   1.1014323712267E-13
(PID.TID 0000.0001) %MON dynstat_uvel_min             =  -1.0690174588566E-13
(PID.TID 0000.0001) %MON dynstat_uvel_mean            =   1.8876755397451E-19
(PID.TID 0000.0001) %MON dynstat_uvel_sd              =   1.6781765755858E-14
(PID.TID 0000.0001) %MON dynstat_uvel_del2            =   2.7058621483072E-16
(PID.TID 0000.0001) %MON dynstat_vvel_max             =   1.3449515940463E-01
(PID.TID 0000.0001) %MON dynstat_vvel_min             =  -6.3560158430724E-02
(PID.TID 0000.0001) %MON dynstat_vvel_mean            =  -8.5552430392012E-06
(PID.TID 0000.0001) %MON dynstat_vvel_sd              =   3.1399262940323E-02
(PID.TID 0000.0001) %MON dynstat_vvel_del2            =   9.0958214097940E-06
(PID.TID 0000.0001) %MON dynstat_wvel_max             =   3.8357689649665E-03
(PID.TID 0000.0001) %MON dynstat_wvel_min             =  -2.3937522667368E-03
(PID.TID 0000.0001) %MON dynstat_wvel_mean            =   3.2038073977373E-05
(PID.TID 0000.0001) %MON dynstat_wvel_sd              =   2.7740268155534E-04
(PID.TID 0000.0001) %MON dynstat_wvel_del2            =   1.8064319537625E-06
(PID.TID 0000.0001) %MON dynstat_theta_max            =   1.1621628337945E+00
(PID.TID 0000.0001) %MON dynstat_theta_min            =  -2.5930904508544E+00
(PID.TID 0000.0001) %MON dynstat_theta_mean           =  -5.7604348251300E-02
(PID.TID 0000.0001) %MON dynstat_theta_sd             =   8.6249508143971E-01
(PID.TID 0000.0001) %MON dynstat_theta_del2           =   3.6599559925513E-05
(PID.TID 0000.0001) %MON dynstat_salt_max             =   3.4691216122122E+01
(PID.TID 0000.0001) %MON dynstat_salt_min             =   3.3621623412106E+01
(PID.TID 0000.0001) %MON dynstat_salt_mean            =   3.4480151826649E+01
(PID.TID 0000.0001) %MON dynstat_salt_sd              =   1.4731338936855E-01
(PID.TID 0000.0001) %MON dynstat_salt_del2            =   9.4586695683820E-06
(PID.TID 0000.0001) %MON advcfl_uvel_max              =   9.4442338535415E-15
(PID.TID 0000.0001) %MON advcfl_vvel_max              =   4.6453782096526E-02
(PID.TID 0000.0001) %MON advcfl_wvel_max              =   1.1507306894900E-01
(PID.TID 0000.0001) %MON advcfl_W_hf_max              =   1.1507306894900E-01
(PID.TID 0000.0001) %MON pe_b_mean                    =  -1.7477500822495E+00
(PID.TID 0000.0001) %MON ke_max                       =   9.0219007968885E-03
(PID.TID 0000.0001) %MON ke_mean                      =   4.9123705322166E-04
(PID.TID 0000.0001) %MON ke_vol                       =   1.3280953734809E+12
(PID.TID 0000.0001) // =======================================================
(PID.TID 0000.0001) // End MONITOR dynamic field statistics
(PID.TID 0000.0001) // =======================================================
(PID.TID 0000.0001) // =======================================================
(PID.TID 0000.0001) // Begin OBCS MONITOR field statistics
(PID.TID 0000.0001) // =======================================================
(PID.TID 0000.0001) %MON obc_N_vVel_max               =   2.5000000000000E-02
(PID.TID 0000.0001) %MON obc_N_vVel_min               =  -2.5000000000000E-02
(PID.TID 0000.0001) %MON obc_N_vVel_mean              =   6.1084074558395E-19
(PID.TID 0000.0001) %MON obc_N_vVel_sd                =   1.3846063814170E-02
(PID.TID 0000.0001) %MON obc_N_vVel_Int               =   7.7307049650699E-12
(PID.TID 0000.0001) // =======================================================
(PID.TID 0000.0001) // End OBCS MONITOR field statistics
(PID.TID 0000.0001) // =======================================================
(PID.TID 0000.0001) streamice solo_time_step: nIter0000008648 0.82E-01seconds
 time_step_loc   9.51293759512937678E-006
(PID.TID 0000.0001) END STREAMICE_ADVECT_THICKNESS
 cg2d: Sum(rhs),rhsMax =   5.44831444386750E-01  4.66249660735382E+01
(PID.TID 0000.0001)      cg2d_init_res =   4.48688058156196E-05
(PID.TID 0000.0001)      cg2d_iters(min,last) =      -1     109
(PID.TID 0000.0001)      cg2d_last_res =   9.77274991851580E-12
 SURF_ADJUSTMENT: Iter=      8649 Nb_pts,Vol=       105  2.07783620E+09
(PID.TID 0000.0001) // =======================================================
(PID.TID 0000.0001) // Begin MONITOR dynamic field statistics
(PID.TID 0000.0001) // =======================================================
(PID.TID 0000.0001) %MON time_tsnumber                =                  8649
(PID.TID 0000.0001) %MON time_secondsf                =   2.5947000000000E+06
(PID.TID 0000.0001) %MON dynstat_eta_max              =   4.2552252031689E+00
(PID.TID 0000.0001) %MON dynstat_eta_min              =  -7.5824570558841E+00
(PID.TID 0000.0001) %MON dynstat_eta_mean             =  -2.7746094724839E+00
(PID.TID 0000.0001) %MON dynstat_eta_sd               =   2.5436169137204E+00
(PID.TID 0000.0001) %MON dynstat_eta_del2             =   1.5055772162783E-01
(PID.TID 0000.0001) %MON dynstat_uvel_max             =   1.0249987635199E-13
(PID.TID 0000.0001) %MON dynstat_uvel_min             =  -1.2191522368330E-13
(PID.TID 0000.0001) %MON dynstat_uvel_mean            =   1.8827329910667E-19
(PID.TID 0000.0001) %MON dynstat_uvel_sd              =   1.7831677631753E-14
(PID.TID 0000.0001) %MON dynstat_uvel_del2            =   2.8534623897533E-16
(PID.TID 0000.0001) %MON dynstat_vvel_max             =   1.3449493451104E-01
(PID.TID 0000.0001) %MON dynstat_vvel_min             =  -6.3566307985013E-02
(PID.TID 0000.0001) %MON dynstat_vvel_mean            =  -8.8541865813764E-06
(PID.TID 0000.0001) %MON dynstat_vvel_sd              =   3.1399600416908E-02
(PID.TID 0000.0001) %MON dynstat_vvel_del2            =   9.1165690198356E-06
(PID.TID 0000.0001) %MON dynstat_wvel_max             =   3.8352633070625E-03
(PID.TID 0000.0001) %MON dynstat_wvel_min             =  -2.3941147490195E-03
(PID.TID 0000.0001) %MON dynstat_wvel_mean            =   3.2037231805438E-05
(PID.TID 0000.0001) %MON dynstat_wvel_sd              =   2.7739709197886E-04
(PID.TID 0000.0001) %MON dynstat_wvel_del2            =   1.8062231465037E-06
(PID.TID 0000.0001) %MON dynstat_theta_max            =   1.1621623816752E+00
(PID.TID 0000.0001) %MON dynstat_theta_min            =  -2.5930760157169E+00
(PID.TID 0000.0001) %MON dynstat_theta_mean           =  -5.7585799922341E-02
(PID.TID 0000.0001) %MON dynstat_theta_sd             =   8.6248800596480E-01
(PID.TID 0000.0001) %MON dynstat_theta_del2           =   3.5220213204579E-05
(PID.TID 0000.0001) %MON dynstat_salt_max             =   3.4691216050334E+01
(PID.TID 0000.0001) %MON dynstat_salt_min             =   3.3621643681479E+01
(PID.TID 0000.0001) %MON dynstat_salt_mean            =   3.4480152874606E+01
(PID.TID 0000.0001) %MON dynstat_salt_sd              =   1.4731195529382E-01
(PID.TID 0000.0001) %MON dynstat_salt_del2            =   8.9934235241031E-06
(PID.TID 0000.0001) %MON advcfl_uvel_max              =   1.0318470326795E-14
(PID.TID 0000.0001) %MON advcfl_vvel_max              =   4.6453704419692E-02
(PID.TID 0000.0001) %MON advcfl_wvel_max              =   1.1505789921187E-01
(PID.TID 0000.0001) %MON advcfl_W_hf_max              =   1.1505789921187E-01
(PID.TID 0000.0001) %MON pe_b_mean                    =  -1.7477385292272E+00
(PID.TID 0000.0001) %MON ke_max                       =   9.0218662815919E-03
(PID.TID 0000.0001) %MON ke_mean                      =   4.9124762391636E-04
(PID.TID 0000.0001) %MON ke_vol                       =   1.3280953745899E+12
(PID.TID 0000.0001) // =======================================================
(PID.TID 0000.0001) // End MONITOR dynamic field statistics
(PID.TID 0000.0001) // =======================================================
(PID.TID 0000.0001) // =======================================================
(PID.TID 0000.0001) // Begin OBCS MONITOR field statistics
(PID.TID 0000.0001) // =======================================================
(PID.TID 0000.0001) %MON obc_N_vVel_max               =   2.5000000000000E-02
(PID.TID 0000.0001) %MON obc_N_vVel_min               =  -2.5000000000000E-02
(PID.TID 0000.0001) %MON obc_N_vVel_mean              =   6.1084074558395E-19
(PID.TID 0000.0001) %MON obc_N_vVel_sd                =   1.3846063814170E-02
(PID.TID 0000.0001) %MON obc_N_vVel_Int               =   7.7307049650699E-12
(PID.TID 0000.0001) // =======================================================
(PID.TID 0000.0001) // End OBCS MONITOR field statistics
(PID.TID 0000.0001) // =======================================================
(PID.TID 0000.0001) streamice solo_time_step: nIter0000008649 0.82E-01seconds
 time_step_loc   9.51293759512937678E-006
(PID.TID 0000.0001) END STREAMICE_ADVECT_THICKNESS
 cg2d: Sum(rhs),rhsMax =   5.44832352600787E-01  4.66248883515595E+01
(PID.TID 0000.0001)      cg2d_init_res =   4.50786519224792E-05
(PID.TID 0000.0001)      cg2d_iters(min,last) =      -1     109
(PID.TID 0000.0001)      cg2d_last_res =   9.95128176548239E-12
 SURF_ADJUSTMENT: Iter=      8650 Nb_pts,Vol=       105  2.07783794E+09
(PID.TID 0000.0001) // =======================================================
(PID.TID 0000.0001) // Begin MONITOR dynamic field statistics
(PID.TID 0000.0001) // =======================================================
(PID.TID 0000.0001) %MON time_tsnumber                =                  8650
(PID.TID 0000.0001) %MON time_secondsf                =   2.5950000000000E+06
(PID.TID 0000.0001) %MON dynstat_eta_max              =   4.2552828042498E+00
(PID.TID 0000.0001) %MON dynstat_eta_min              =  -7.5823569215870E+00
(PID.TID 0000.0001) %MON dynstat_eta_mean             =  -2.7746094724839E+00
(PID.TID 0000.0001) %MON dynstat_eta_sd               =   2.5436175121722E+00
(PID.TID 0000.0001) %MON dynstat_eta_del2             =   1.5055761504338E-01
(PID.TID 0000.0001) %MON dynstat_uvel_max             =   8.0329505317291E-14
(PID.TID 0000.0001) %MON dynstat_uvel_min             =  -8.7571405759725E-14
(PID.TID 0000.0001) %MON dynstat_uvel_mean            =   1.8781698443981E-19
(PID.TID 0000.0001) %MON dynstat_uvel_sd              =   1.7853688110754E-14
(PID.TID 0000.0001) %MON dynstat_uvel_del2            =   2.8555936944050E-16
(PID.TID 0000.0001) %MON dynstat_vvel_max             =   1.3449390767524E-01
(PID.TID 0000.0001) %MON dynstat_vvel_min             =  -6.3573115482974E-02
(PID.TID 0000.0001) %MON dynstat_vvel_mean            =  -9.3890327491631E-06
(PID.TID 0000.0001) %MON dynstat_vvel_sd              =   3.1399950148868E-02
(PID.TID 0000.0001) %MON dynstat_vvel_del2            =   9.1333309318654E-06
(PID.TID 0000.0001) %MON dynstat_wvel_max             =   3.8346868124356E-03
(PID.TID 0000.0001) %MON dynstat_wvel_min             =  -2.3944772022721E-03
(PID.TID 0000.0001) %MON dynstat_wvel_mean            =   3.2033870594604E-05
(PID.TID 0000.0001) %MON dynstat_wvel_sd              =   2.7738997397015E-04
(PID.TID 0000.0001) %MON dynstat_wvel_del2            =   1.8060139596778E-06
(PID.TID 0000.0001) %MON dynstat_theta_max            =   1.1621619292473E+00
(PID.TID 0000.0001) %MON dynstat_theta_min            =  -2.5930611896865E+00
(PID.TID 0000.0001) %MON dynstat_theta_mean           =  -5.7567257511858E-02
(PID.TID 0000.0001) %MON dynstat_theta_sd             =   8.6248096411657E-01
(PID.TID 0000.0001) %MON dynstat_theta_del2           =   3.4025889943268E-05
(PID.TID 0000.0001) %MON dynstat_salt_max             =   3.4691215978496E+01
(PID.TID 0000.0001) %MON dynstat_salt_min             =   3.3621666829388E+01
(PID.TID 0000.0001) %MON dynstat_salt_mean            =   3.4480153921245E+01
(PID.TID 0000.0001) %MON dynstat_salt_sd              =   1.4731053894939E-01
(PID.TID 0000.0001) %MON dynstat_salt_del2            =   8.5857845703306E-06
(PID.TID 0000.0001) %MON advcfl_uvel_max              =   6.9293721809297E-15
(PID.TID 0000.0001) %MON advcfl_vvel_max              =   4.6453349757068E-02
(PID.TID 0000.0001) %MON advcfl_wvel_max              =   1.1504060437307E-01
(PID.TID 0000.0001) %MON advcfl_W_hf_max              =   1.1504060437307E-01
(PID.TID 0000.0001) %MON pe_b_mean                    =  -1.7477266333791E+00
(PID.TID 0000.0001) %MON ke_max                       =   9.0217213378667E-03
(PID.TID 0000.0001) %MON ke_mean                      =   4.9125858069681E-04
(PID.TID 0000.0001) %MON ke_vol                       =   1.3280953760720E+12
(PID.TID 0000.0001) // =======================================================
(PID.TID 0000.0001) // End MONITOR dynamic field statistics
(PID.TID 0000.0001) // =======================================================
(PID.TID 0000.0001) // =======================================================
(PID.TID 0000.0001) // Begin OBCS MONITOR field statistics
(PID.TID 0000.0001) // =======================================================
(PID.TID 0000.0001) %MON obc_N_vVel_max               =   2.5000000000000E-02
(PID.TID 0000.0001) %MON obc_N_vVel_min               =  -2.5000000000000E-02
(PID.TID 0000.0001) %MON obc_N_vVel_mean              =   6.1084074558395E-19
(PID.TID 0000.0001) %MON obc_N_vVel_sd                =   1.3846063814170E-02
(PID.TID 0000.0001) %MON obc_N_vVel_Int               =   7.7307049650699E-12
(PID.TID 0000.0001) // =======================================================
(PID.TID 0000.0001) // End OBCS MONITOR field statistics
(PID.TID 0000.0001) // =======================================================
(PID.TID 0000.0001) streamice solo_time_step: nIter0000008650 0.82E-01seconds
 time_step_loc   9.51293759512937678E-006
(PID.TID 0000.0001) END STREAMICE_ADVECT_THICKNESS
 cg2d: Sum(rhs),rhsMax =   5.44833278361070E-01  4.66248091282968E+01
(PID.TID 0000.0001)      cg2d_init_res =   4.52713195667341E-05
(PID.TID 0000.0001)      cg2d_iters(min,last) =      -1     110
(PID.TID 0000.0001)      cg2d_last_res =   5.49366038778328E-12
 SURF_ADJUSTMENT: Iter=      8651 Nb_pts,Vol=       105  2.07783982E+09
(PID.TID 0000.0001) // =======================================================
(PID.TID 0000.0001) // Begin MONITOR dynamic field statistics
(PID.TID 0000.0001) // =======================================================
(PID.TID 0000.0001) %MON time_tsnumber                =                  8651
(PID.TID 0000.0001) %MON time_secondsf                =   2.5953000000000E+06
(PID.TID 0000.0001) %MON dynstat_eta_max              =   4.2553397731303E+00
(PID.TID 0000.0001) %MON dynstat_eta_min              =  -7.5822561113318E+00
(PID.TID 0000.0001) %MON dynstat_eta_mean             =  -2.7746094724839E+00
(PID.TID 0000.0001) %MON dynstat_eta_sd               =   2.5436181382890E+00
(PID.TID 0000.0001) %MON dynstat_eta_del2             =   1.5055750962648E-01
(PID.TID 0000.0001) %MON dynstat_uvel_max             =   1.1840365475155E-13
(PID.TID 0000.0001) %MON dynstat_uvel_min             =  -8.9669282050670E-14
(PID.TID 0000.0001) %MON dynstat_uvel_mean            =   1.8739241942261E-19
(PID.TID 0000.0001) %MON dynstat_uvel_sd              =   1.7616095153830E-14
(PID.TID 0000.0001) %MON dynstat_uvel_del2            =   2.8107307143695E-16
(PID.TID 0000.0001) %MON dynstat_vvel_max             =   1.3449246911119E-01
(PID.TID 0000.0001) %MON dynstat_vvel_min             =  -6.3580210439692E-02
(PID.TID 0000.0001) %MON dynstat_vvel_mean            =  -1.0009887914505E-05
(PID.TID 0000.0001) %MON dynstat_vvel_sd              =   3.1400310243783E-02
(PID.TID 0000.0001) %MON dynstat_vvel_del2            =   9.1469233283139E-06
(PID.TID 0000.0001) %MON dynstat_wvel_max             =   3.8341253857085E-03
(PID.TID 0000.0001) %MON dynstat_wvel_min             =  -2.3948388642351E-03
(PID.TID 0000.0001) %MON dynstat_wvel_mean            =   3.2029177204059E-05
(PID.TID 0000.0001) %MON dynstat_wvel_sd              =   2.7738295243470E-04
(PID.TID 0000.0001) %MON dynstat_wvel_del2            =   1.8058269193140E-06
(PID.TID 0000.0001) %MON dynstat_theta_max            =   1.1621614765405E+00
(PID.TID 0000.0001) %MON dynstat_theta_min            =  -2.5930461097153E+00
(PID.TID 0000.0001) %MON dynstat_theta_mean           =  -5.7548719093296E-02
(PID.TID 0000.0001) %MON dynstat_theta_sd             =   8.6247395127285E-01
(PID.TID 0000.0001) %MON dynstat_theta_del2           =   3.2989917234196E-05
(PID.TID 0000.0001) %MON dynstat_salt_max             =   3.4691215906615E+01
(PID.TID 0000.0001) %MON dynstat_salt_min             =   3.3621692817473E+01
(PID.TID 0000.0001) %MON dynstat_salt_mean            =   3.4480154966991E+01
(PID.TID 0000.0001) %MON dynstat_salt_sd              =   1.4730913802879E-01
(PID.TID 0000.0001) %MON dynstat_salt_del2            =   8.2280251929445E-06
(PID.TID 0000.0001) %MON advcfl_uvel_max              =   8.8311258726912E-15
(PID.TID 0000.0001) %MON advcfl_vvel_max              =   4.6452852886093E-02
(PID.TID 0000.0001) %MON advcfl_wvel_max              =   1.1502376157125E-01
(PID.TID 0000.0001) %MON advcfl_W_hf_max              =   1.1502376157125E-01
(PID.TID 0000.0001) %MON pe_b_mean                    =  -1.7477142430280E+00
(PID.TID 0000.0001) %MON ke_max                       =   9.0215171272470E-03
(PID.TID 0000.0001) %MON ke_mean                      =   4.9126986320201E-04
(PID.TID 0000.0001) %MON ke_vol                       =   1.3280953778124E+12
(PID.TID 0000.0001) // =======================================================
(PID.TID 0000.0001) // End MONITOR dynamic field statistics
(PID.TID 0000.0001) // =======================================================
(PID.TID 0000.0001) // =======================================================
(PID.TID 0000.0001) // Begin OBCS MONITOR field statistics
(PID.TID 0000.0001) // =======================================================
(PID.TID 0000.0001) %MON obc_N_vVel_max               =   2.5000000000000E-02
(PID.TID 0000.0001) %MON obc_N_vVel_min               =  -2.5000000000000E-02
(PID.TID 0000.0001) %MON obc_N_vVel_mean              =   6.1084074558395E-19
(PID.TID 0000.0001) %MON obc_N_vVel_sd                =   1.3846063814170E-02
(PID.TID 0000.0001) %MON obc_N_vVel_Int               =   7.7307049650699E-12
(PID.TID 0000.0001) // =======================================================
(PID.TID 0000.0001) // End OBCS MONITOR field statistics
(PID.TID 0000.0001) // =======================================================
(PID.TID 0000.0001) streamice solo_time_step: nIter0000008651 0.82E-01seconds
 time_step_loc   9.51293759512937678E-006
(PID.TID 0000.0001) END STREAMICE_ADVECT_THICKNESS
 cg2d: Sum(rhs),rhsMax =   5.44834218868435E-01  4.66247286433073E+01
(PID.TID 0000.0001)      cg2d_init_res =   4.54484850112826E-05
(PID.TID 0000.0001)      cg2d_iters(min,last) =      -1     110
(PID.TID 0000.0001)      cg2d_last_res =   5.56512162518299E-12
 SURF_ADJUSTMENT: Iter=      8652 Nb_pts,Vol=       105  2.07784177E+09
(PID.TID 0000.0001) // =======================================================
(PID.TID 0000.0001) // Begin MONITOR dynamic field statistics
(PID.TID 0000.0001) // =======================================================
(PID.TID 0000.0001) %MON time_tsnumber                =                  8652
(PID.TID 0000.0001) %MON time_secondsf                =   2.5956000000000E+06
(PID.TID 0000.0001) %MON dynstat_eta_max              =   4.2553946788524E+00
(PID.TID 0000.0001) %MON dynstat_eta_min              =  -7.5821562213325E+00
(PID.TID 0000.0001) %MON dynstat_eta_mean             =  -2.7746094724839E+00
(PID.TID 0000.0001) %MON dynstat_eta_sd               =   2.5436187415797E+00
(PID.TID 0000.0001) %MON dynstat_eta_del2             =   1.5055740524540E-01
(PID.TID 0000.0001) %MON dynstat_uvel_max             =   9.9841127267190E-14
(PID.TID 0000.0001) %MON dynstat_uvel_min             =  -9.0765308397649E-14
(PID.TID 0000.0001) %MON dynstat_uvel_mean            =   1.8699460802520E-19
(PID.TID 0000.0001) %MON dynstat_uvel_sd              =   1.6318397399500E-14
(PID.TID 0000.0001) %MON dynstat_uvel_del2            =   2.6226359557627E-16
(PID.TID 0000.0001) %MON dynstat_vvel_max             =   1.3449096231165E-01
(PID.TID 0000.0001) %MON dynstat_vvel_min             =  -6.3587330622510E-02
(PID.TID 0000.0001) %MON dynstat_vvel_mean            =  -1.0628712582437E-05
(PID.TID 0000.0001) %MON dynstat_vvel_sd              =   3.1400679215023E-02
(PID.TID 0000.0001) %MON dynstat_vvel_del2            =   9.1579822869902E-06
(PID.TID 0000.0001) %MON dynstat_wvel_max             =   3.8336225093138E-03
(PID.TID 0000.0001) %MON dynstat_wvel_min             =  -2.3951998520782E-03
(PID.TID 0000.0001) %MON dynstat_wvel_mean            =   3.2024111212860E-05
(PID.TID 0000.0001) %MON dynstat_wvel_sd              =   2.7737703799737E-04
(PID.TID 0000.0001) %MON dynstat_wvel_del2            =   1.8056705062290E-06
(PID.TID 0000.0001) %MON dynstat_theta_max            =   1.1621610235811E+00
(PID.TID 0000.0001) %MON dynstat_theta_min            =  -2.5930308901123E+00
(PID.TID 0000.0001) %MON dynstat_theta_mean           =  -5.7530183188511E-02
(PID.TID 0000.0001) %MON dynstat_theta_sd             =   8.6246696396134E-01
(PID.TID 0000.0001) %MON dynstat_theta_del2           =   3.2089456842777E-05
(PID.TID 0000.0001) %MON dynstat_salt_max             =   3.4691215834693E+01
(PID.TID 0000.0001) %MON dynstat_salt_min             =   3.3621721570659E+01
(PID.TID 0000.0001) %MON dynstat_salt_mean            =   3.4480156012218E+01
(PID.TID 0000.0001) %MON dynstat_salt_sd              =   1.4730775068292E-01
(PID.TID 0000.0001) %MON dynstat_salt_del2            =   7.9134728446018E-06
(PID.TID 0000.0001) %MON advcfl_uvel_max              =   8.2374843669859E-15
(PID.TID 0000.0001) %MON advcfl_vvel_max              =   4.6452332447008E-02
(PID.TID 0000.0001) %MON advcfl_wvel_max              =   1.1500867527941E-01
(PID.TID 0000.0001) %MON advcfl_W_hf_max              =   1.1500867527941E-01
(PID.TID 0000.0001) %MON pe_b_mean                    =  -1.7477013147043E+00
(PID.TID 0000.0001) %MON ke_max                       =   9.0212980868627E-03
(PID.TID 0000.0001) %MON ke_mean                      =   4.9128142413162E-04
(PID.TID 0000.0001) %MON ke_vol                       =   1.3280953796952E+12
(PID.TID 0000.0001) // =======================================================
(PID.TID 0000.0001) // End MONITOR dynamic field statistics
(PID.TID 0000.0001) // =======================================================
(PID.TID 0000.0001) // =======================================================
(PID.TID 0000.0001) // Begin OBCS MONITOR field statistics
(PID.TID 0000.0001) // =======================================================
(PID.TID 0000.0001) %MON obc_N_vVel_max               =   2.5000000000000E-02
(PID.TID 0000.0001) %MON obc_N_vVel_min               =  -2.5000000000000E-02
(PID.TID 0000.0001) %MON obc_N_vVel_mean              =   6.1084074558395E-19
(PID.TID 0000.0001) %MON obc_N_vVel_sd                =   1.3846063814170E-02
(PID.TID 0000.0001) %MON obc_N_vVel_Int               =   7.7307049650699E-12
(PID.TID 0000.0001) // =======================================================
(PID.TID 0000.0001) // End OBCS MONITOR field statistics
(PID.TID 0000.0001) // =======================================================
(PID.TID 0000.0001) %CHECKPOINT      8652 ckptA
(PID.TID 0000.0001)   Seconds in section "ALL                    [THE_MODEL_MAIN]":
(PID.TID 0000.0001)           User time:   21.156783958896995
(PID.TID 0000.0001)         System time:  0.10498400265350938
(PID.TID 0000.0001)     Wall clock time:   21.390856027603149
(PID.TID 0000.0001)          No. starts:           1
(PID.TID 0000.0001)           No. stops:           1
(PID.TID 0000.0001)   Seconds in section "INITIALISE_FIXED       [THE_MODEL_MAIN]":
(PID.TID 0000.0001)           User time:  0.18397200666368008
(PID.TID 0000.0001)         System time:  2.89949984289705753E-002
(PID.TID 0000.0001)     Wall clock time:  0.26103186607360840
(PID.TID 0000.0001)          No. starts:           1
(PID.TID 0000.0001)           No. stops:           1
(PID.TID 0000.0001)   Seconds in section "THE_MAIN_LOOP          [THE_MODEL_MAIN]":
(PID.TID 0000.0001)           User time:   20.972811952233315
(PID.TID 0000.0001)         System time:  7.59890042245388031E-002
(PID.TID 0000.0001)     Wall clock time:   21.129789113998413
(PID.TID 0000.0001)          No. starts:           1
(PID.TID 0000.0001)           No. stops:           1
(PID.TID 0000.0001)   Seconds in section "INITIALISE_VARIA    [THE_MAIN_LOOP]":
(PID.TID 0000.0001)           User time:  0.34594799578189850
(PID.TID 0000.0001)         System time:  2.59970016777515411E-002
(PID.TID 0000.0001)     Wall clock time:  0.38684701919555664
(PID.TID 0000.0001)          No. starts:           1
(PID.TID 0000.0001)           No. stops:           1
(PID.TID 0000.0001)   Seconds in section "MAIN LOOP           [THE_MAIN_LOOP]":
(PID.TID 0000.0001)           User time:   20.626863956451416
(PID.TID 0000.0001)         System time:  4.99920025467872620E-002
(PID.TID 0000.0001)     Wall clock time:   20.742913961410522
(PID.TID 0000.0001)          No. starts:           1
(PID.TID 0000.0001)           No. stops:           1
(PID.TID 0000.0001)   Seconds in section "MAIN_DO_LOOP        [THE_MAIN_LOOP]":
(PID.TID 0000.0001)           User time:   20.626863956451416
(PID.TID 0000.0001)         System time:  4.99920025467872620E-002
(PID.TID 0000.0001)     Wall clock time:   20.742806434631348
(PID.TID 0000.0001)          No. starts:          12
(PID.TID 0000.0001)           No. stops:          12
(PID.TID 0000.0001)   Seconds in section "FORWARD_STEP        [MAIN_DO_LOOP]":
(PID.TID 0000.0001)           User time:   20.626863956451416
(PID.TID 0000.0001)         System time:  4.99920025467872620E-002
(PID.TID 0000.0001)     Wall clock time:   20.742602348327637
(PID.TID 0000.0001)          No. starts:          12
(PID.TID 0000.0001)           No. stops:          12
(PID.TID 0000.0001)   Seconds in section "SHELFICE_REMESHING     [FORWARD_STEP]":
(PID.TID 0000.0001)           User time:  0.41493701934814453
(PID.TID 0000.0001)         System time:   0.0000000000000000
(PID.TID 0000.0001)     Wall clock time:  0.41521239280700684
(PID.TID 0000.0001)          No. starts:          12
(PID.TID 0000.0001)           No. stops:          12
(PID.TID 0000.0001)   Seconds in section "LOAD_FIELDS_DRIVER  [FORWARD_STEP]":
(PID.TID 0000.0001)           User time:  1.99890136718750000E-003
(PID.TID 0000.0001)         System time:   0.0000000000000000
(PID.TID 0000.0001)     Wall clock time:  3.24726104736328125E-004
(PID.TID 0000.0001)          No. starts:          12
(PID.TID 0000.0001)           No. stops:          12
(PID.TID 0000.0001)   Seconds in section "EXTERNAL_FLDS_LOAD [LOAD_FLDS_DRIVER]":
(PID.TID 0000.0001)           User time:  9.99450683593750000E-004
(PID.TID 0000.0001)         System time:   0.0000000000000000
(PID.TID 0000.0001)     Wall clock time:  1.19686126708984375E-004
(PID.TID 0000.0001)          No. starts:          12
(PID.TID 0000.0001)           No. stops:          12
(PID.TID 0000.0001)   Seconds in section "DO_ATMOSPHERIC_PHYS [FORWARD_STEP]":
(PID.TID 0000.0001)           User time:   0.0000000000000000
(PID.TID 0000.0001)         System time:   0.0000000000000000
(PID.TID 0000.0001)     Wall clock time:  1.02281570434570313E-004
(PID.TID 0000.0001)          No. starts:          12
(PID.TID 0000.0001)           No. stops:          12
(PID.TID 0000.0001)   Seconds in section "DO_OCEANIC_PHYS     [FORWARD_STEP]":
(PID.TID 0000.0001)           User time:  0.56791412830352783
(PID.TID 0000.0001)         System time:  9.98999923467636108E-004
(PID.TID 0000.0001)     Wall clock time:  0.57169318199157715
(PID.TID 0000.0001)          No. starts:          12
(PID.TID 0000.0001)           No. stops:          12
(PID.TID 0000.0001)   Seconds in section "SHELFICE_THERMODYNAMICS [DO_OCEANIC_PHYS]":
(PID.TID 0000.0001)           User time:  1.39995217323303223E-002
(PID.TID 0000.0001)         System time:   0.0000000000000000
(PID.TID 0000.0001)     Wall clock time:  1.56733989715576172E-002
(PID.TID 0000.0001)          No. starts:          12
(PID.TID 0000.0001)           No. stops:          12
(PID.TID 0000.0001)   Seconds in section "STREAMICE_TIMESTEP [FORWARD_STEP]":
(PID.TID 0000.0001)           User time:  0.59290552139282227
(PID.TID 0000.0001)         System time:   0.0000000000000000
(PID.TID 0000.0001)     Wall clock time:  0.59437417984008789
(PID.TID 0000.0001)          No. starts:          12
(PID.TID 0000.0001)           No. stops:          12
(PID.TID 0000.0001)   Seconds in section "STREAMICE_VEL_SOLVE":
(PID.TID 0000.0001)           User time:  0.57291299104690552
(PID.TID 0000.0001)         System time:   0.0000000000000000
(PID.TID 0000.0001)     Wall clock time:  0.57372784614562988
(PID.TID 0000.0001)          No. starts:           1
(PID.TID 0000.0001)           No. stops:           1
(PID.TID 0000.0001)   Seconds in section "STREAMICE_CG_SOLVE":
(PID.TID 0000.0001)           User time:  0.46393001079559326
(PID.TID 0000.0001)         System time:   0.0000000000000000
(PID.TID 0000.0001)     Wall clock time:  0.46509814262390137
(PID.TID 0000.0001)          No. starts:           1
(PID.TID 0000.0001)           No. stops:           1
(PID.TID 0000.0001)   Seconds in section "STREAMICE_ADVECT_THICKNESS":
(PID.TID 0000.0001)           User time:  1.09978914260864258E-002
(PID.TID 0000.0001)         System time:   0.0000000000000000
(PID.TID 0000.0001)     Wall clock time:  1.06129646301269531E-002
(PID.TID 0000.0001)          No. starts:          12
(PID.TID 0000.0001)           No. stops:          12
(PID.TID 0000.0001)   Seconds in section "DYNAMICS            [FORWARD_STEP]":
(PID.TID 0000.0001)           User time:   7.9007974863052368
(PID.TID 0000.0001)         System time:  1.29980035126209259E-002
(PID.TID 0000.0001)     Wall clock time:   7.9299509525299072
(PID.TID 0000.0001)          No. starts:          12
(PID.TID 0000.0001)           No. stops:          12
(PID.TID 0000.0001)   Seconds in section "UPDATE_SURF_DR      [FORWARD_STEP]":
(PID.TID 0000.0001)           User time:  2.00009346008300781E-003
(PID.TID 0000.0001)         System time:   0.0000000000000000
(PID.TID 0000.0001)     Wall clock time:  2.84099578857421875E-003
(PID.TID 0000.0001)          No. starts:          12
(PID.TID 0000.0001)           No. stops:          12
(PID.TID 0000.0001)   Seconds in section "UPDATE_CG2D         [FORWARD_STEP]":
(PID.TID 0000.0001)           User time:  8.89859199523925781E-002
(PID.TID 0000.0001)         System time:   0.0000000000000000
(PID.TID 0000.0001)     Wall clock time:  8.96224975585937500E-002
(PID.TID 0000.0001)          No. starts:          12
(PID.TID 0000.0001)           No. stops:          12
(PID.TID 0000.0001)   Seconds in section "SOLVE_FOR_PRESSURE  [FORWARD_STEP]":
(PID.TID 0000.0001)           User time:  0.38994407653808594
(PID.TID 0000.0001)         System time:   0.0000000000000000
(PID.TID 0000.0001)     Wall clock time:  0.38870525360107422
(PID.TID 0000.0001)          No. starts:          12
(PID.TID 0000.0001)           No. stops:          12
(PID.TID 0000.0001)   Seconds in section "MOM_CORRECTION_STEP [FORWARD_STEP]":
(PID.TID 0000.0001)           User time:  0.19596982002258301
(PID.TID 0000.0001)         System time:   0.0000000000000000
(PID.TID 0000.0001)     Wall clock time:  0.19796824455261230
(PID.TID 0000.0001)          No. starts:          12
(PID.TID 0000.0001)           No. stops:          12
(PID.TID 0000.0001)   Seconds in section "INTEGR_CONTINUITY   [FORWARD_STEP]":
(PID.TID 0000.0001)           User time:  0.27595520019531250
(PID.TID 0000.0001)         System time:   0.0000000000000000
(PID.TID 0000.0001)     Wall clock time:  0.27639913558959961
(PID.TID 0000.0001)          No. starts:          12
(PID.TID 0000.0001)           No. stops:          12
(PID.TID 0000.0001)   Seconds in section "CALC_SURF_DR      [FORWARD_STEP]":
(PID.TID 0000.0001)           User time:  1.29976272583007813E-002
(PID.TID 0000.0001)         System time:  9.99994575977325439E-004
(PID.TID 0000.0001)     Wall clock time:  1.10380649566650391E-002
(PID.TID 0000.0001)          No. starts:          12
(PID.TID 0000.0001)           No. stops:          12
(PID.TID 0000.0001)   Seconds in section "BLOCKING_EXCHANGES  [FORWARD_STEP]":
(PID.TID 0000.0001)           User time:  0.28295946121215820
(PID.TID 0000.0001)         System time:   0.0000000000000000
(PID.TID 0000.0001)     Wall clock time:  0.28353381156921387
(PID.TID 0000.0001)          No. starts:          24
(PID.TID 0000.0001)           No. stops:          24
(PID.TID 0000.0001)   Seconds in section "THERMODYNAMICS      [FORWARD_STEP]":
(PID.TID 0000.0001)           User time:   7.6458392143249512
(PID.TID 0000.0001)         System time:  2.29969993233680725E-002
(PID.TID 0000.0001)     Wall clock time:   7.7058901786804199
(PID.TID 0000.0001)          No. starts:          12
(PID.TID 0000.0001)           No. stops:          12
(PID.TID 0000.0001)   Seconds in section "TRC_CORRECTION_STEP [FORWARD_STEP]":
(PID.TID 0000.0001)           User time:   1.4197833538055420
(PID.TID 0000.0001)         System time:   0.0000000000000000
(PID.TID 0000.0001)     Wall clock time:   1.4251251220703125
(PID.TID 0000.0001)          No. starts:          12
(PID.TID 0000.0001)           No. stops:          12
(PID.TID 0000.0001)   Seconds in section "MONITOR             [FORWARD_STEP]":
(PID.TID 0000.0001)           User time:  0.71389484405517578
(PID.TID 0000.0001)         System time:   0.0000000000000000
(PID.TID 0000.0001)     Wall clock time:  0.71712398529052734
(PID.TID 0000.0001)          No. starts:          12
(PID.TID 0000.0001)           No. stops:          12
(PID.TID 0000.0001)   Seconds in section "DO_THE_MODEL_IO     [FORWARD_STEP]":
(PID.TID 0000.0001)           User time:  5.09910583496093750E-002
(PID.TID 0000.0001)         System time:  4.99900430440902710E-003
(PID.TID 0000.0001)     Wall clock time:  5.73308467864990234E-002
(PID.TID 0000.0001)          No. starts:          12
(PID.TID 0000.0001)           No. stops:          12
(PID.TID 0000.0001)   Seconds in section "DO_WRITE_PICKUP     [FORWARD_STEP]":
(PID.TID 0000.0001)           User time:  6.59904479980468750E-002
(PID.TID 0000.0001)         System time:  6.99900090694427490E-003
(PID.TID 0000.0001)     Wall clock time:  7.31747150421142578E-002
(PID.TID 0000.0001)          No. starts:          12
(PID.TID 0000.0001)           No. stops:          12
(PID.TID 0000.0001) // ======================================================
(PID.TID 0000.0001) // Tile <-> Tile communication statistics
(PID.TID 0000.0001) // ======================================================
(PID.TID 0000.0001) // o Tile number: 000001
(PID.TID 0000.0001) //         No. X exchanges =              0
(PID.TID 0000.0001) //            Max. X spins =              0
(PID.TID 0000.0001) //            Min. X spins =     1000000000
(PID.TID 0000.0001) //          Total. X spins =              0
(PID.TID 0000.0001) //            Avg. X spins =       0.00E+00
(PID.TID 0000.0001) //         No. Y exchanges =              0
(PID.TID 0000.0001) //            Max. Y spins =              0
(PID.TID 0000.0001) //            Min. Y spins =     1000000000
(PID.TID 0000.0001) //          Total. Y spins =              0
(PID.TID 0000.0001) //            Avg. Y spins =       0.00E+00
(PID.TID 0000.0001) // o Thread number: 000001
(PID.TID 0000.0001) //            No. barriers =          21830
(PID.TID 0000.0001) //      Max. barrier spins =              1
(PID.TID 0000.0001) //      Min. barrier spins =              1
(PID.TID 0000.0001) //     Total barrier spins =          21830
(PID.TID 0000.0001) //      Avg. barrier spins =       1.00E+00
PROGRAM MAIN: Execution ended Normally
