(PID.TID 0000.0001) 
(PID.TID 0000.0001) // ======================================================
(PID.TID 0000.0001) //                      MITgcm UV
(PID.TID 0000.0001) //                      =========
(PID.TID 0000.0001) // ======================================================
(PID.TID 0000.0001) // execution environment starting up...
(PID.TID 0000.0001) 
(PID.TID 0000.0001) // MITgcmUV version:  checkpoint68w
(PID.TID 0000.0001) // Build user:        jm_c
(PID.TID 0000.0001) // Build host:        villon
(PID.TID 0000.0001) // Build date:        Sun Mar 10 23:33:31 EDT 2024
(PID.TID 0000.0001) 
(PID.TID 0000.0001) // =======================================================
(PID.TID 0000.0001) // Execution Environment parameter file "eedata"
(PID.TID 0000.0001) // =======================================================
(PID.TID 0000.0001) ># Example "eedata" file
(PID.TID 0000.0001) ># Lines beginning "#" are comments
(PID.TID 0000.0001) ># nTx - No. threads per process in X
(PID.TID 0000.0001) ># nTy - No. threads per process in Y
(PID.TID 0000.0001) > &EEPARMS
(PID.TID 0000.0001) > useCoupler=.TRUE.,
(PID.TID 0000.0001) > useCubedSphereExchange=.TRUE.,
(PID.TID 0000.0001) > nTx=1,
(PID.TID 0000.0001) > nTy=1,
(PID.TID 0000.0001) >#debugMode=.TRUE.,
(PID.TID 0000.0001) > /
(PID.TID 0000.0001) ># Note: Some systems use & as the namelist terminator (as shown here).
(PID.TID 0000.0001) >#       Other systems use a / character.
(PID.TID 0000.0001) 
(PID.TID 0000.0001) // =======================================================
(PID.TID 0000.0001) // Computational Grid Specification ( see files "SIZE.h" )
(PID.TID 0000.0001) //                                  ( and "eedata"       )
(PID.TID 0000.0001) // =======================================================
(PID.TID 0000.0001)      nPx =    1 ; /* No. processes in X */
(PID.TID 0000.0001)      nPy =    1 ; /* No. processes in Y */
(PID.TID 0000.0001)      nSx =    6 ; /* No. tiles in X per process */
(PID.TID 0000.0001)      nSy =    1 ; /* No. tiles in Y per process */
(PID.TID 0000.0001)      sNx =   32 ; /* Tile size in X */
(PID.TID 0000.0001)      sNy =   32 ; /* Tile size in Y */
(PID.TID 0000.0001)      OLx =    4 ; /* Tile overlap distance in X */
(PID.TID 0000.0001)      OLy =    4 ; /* Tile overlap distance in Y */
(PID.TID 0000.0001)      nTx =    1 ; /* No. threads in X per process */
(PID.TID 0000.0001)      nTy =    1 ; /* No. threads in Y per process */
(PID.TID 0000.0001)       Nr =   26 ; /* No. levels in the vertical   */
(PID.TID 0000.0001)       Nx =  192 ; /* Total domain size in X ( = nPx*nSx*sNx ) */
(PID.TID 0000.0001)       Ny =   32 ; /* Total domain size in Y ( = nPy*nSy*sNy ) */
(PID.TID 0000.0001)   nTiles =    6 ; /* Total no. tiles per process ( = nSx*nSy ) */
(PID.TID 0000.0001)   nProcs =    1 ; /* Total no. processes ( = nPx*nPy ) */
(PID.TID 0000.0001) nThreads =    1 ; /* Total no. threads per process ( = nTx*nTy ) */
(PID.TID 0000.0001) usingMPI =    T ; /* Flag used to control whether MPI is in use */
(PID.TID 0000.0001)                   /*  note: To execute a program with MPI calls */
(PID.TID 0000.0001)                   /*  it must be launched appropriately e.g     */
(PID.TID 0000.0001)                   /*  "mpirun -np 64 ......"                    */
(PID.TID 0000.0001) useCoupler=   T ; /* Flag used to control communications with   */
(PID.TID 0000.0001)                   /*  other model components, through a coupler */
(PID.TID 0000.0001) useNest2W_parent =    F ;/* Control 2-W Nesting comm */
(PID.TID 0000.0001) useNest2W_child  =    F ;/* Control 2-W Nesting comm */
(PID.TID 0000.0001) debugMode =    F ; /* print debug msg. (sequence of S/R calls)  */
(PID.TID 0000.0001) printMapIncludesZeros=    F ; /* print zeros in Std.Output maps */
(PID.TID 0000.0001) maxLengthPrt1D=   65 /* maxLength of 1D array printed to StdOut */
(PID.TID 0000.0001) 
(PID.TID 0000.0001) ======= Starting MPI parallel Run =========
(PID.TID 0000.0001)  My Processor Name (len:  6 ) = villon
(PID.TID 0000.0001)  Located at (  0,  0) on processor grid (0:  0,0:  0)
(PID.TID 0000.0001)  Origin at  (     1,     1) on global grid (1:   192,1:    32)
(PID.TID 0000.0001)  North neighbor = processor 0000
(PID.TID 0000.0001)  South neighbor = processor 0000
(PID.TID 0000.0001)   East neighbor = processor 0000
(PID.TID 0000.0001)   West neighbor = processor 0000
(PID.TID 0000.0001) // ======================================================
(PID.TID 0000.0001) // Mapping of tiles to threads
(PID.TID 0000.0001) // ======================================================
(PID.TID 0000.0001) // -o- Thread   1, tiles (   1:   6,   1:   1)
(PID.TID 0000.0001) 
(PID.TID 0000.0001) W2_READPARMS: file data.exch2 not found
(PID.TID 0000.0001) => use W2_EXCH2 default: regular 6-facets Cube
(PID.TID 0000.0001) W2_useE2ioLayOut=    T ;/* T: use Exch2 glob IO map; F: use model default */
(PID.TID 0000.0001) W2_mapIO        =  -1 ; /* select option for Exch2 global-IO map */
(PID.TID 0000.0001) W2_printMsg     =  -1 ; /* select option for printing information */
(PID.TID 0000.0001) ===== Start setting W2 TOPOLOGY:
(PID.TID 0000.0001)  write to log-file: w2_tile_topology.0000.log
(PID.TID 0000.0001) =====       setting W2 TOPOLOGY: Done
(PID.TID 0000.0001) 
(PID.TID 0000.0001)  INI_PARMS: opening model parameter file "data"
(PID.TID 0000.0001)  OPEN_COPY_DATA_FILE: opening file data
(PID.TID 0000.0001) // =======================================================
(PID.TID 0000.0001) // Parameter file "data"
(PID.TID 0000.0001) // =======================================================
(PID.TID 0000.0001) ># ====================
(PID.TID 0000.0001) ># | Model parameters |
(PID.TID 0000.0001) ># ====================
(PID.TID 0000.0001) >#
(PID.TID 0000.0001) ># Continuous equation parameters
(PID.TID 0000.0001) > &PARM01
(PID.TID 0000.0001) >#- mean theta* from H&S, isothermal (T=200.K) above p=150.mb:
(PID.TID 0000.0001) > tRef= 295.1, 295.2, 295.4, 295.6, 296.0, 296.6, 297.3, 298.2, 299.3, 300.6,
(PID.TID 0000.0001) >       302.4, 305.9, 311.8, 321.8, 338.3, 359.5, 382.8, 408.6, 437.5, 470.6,
(PID.TID 0000.0001) >       509.2, 555.8, 614.9, 696.3, 827.2, 1153.6,
(PID.TID 0000.0001) >#tRef=26*280.,
(PID.TID 0000.0001) > sRef=26*0.,
(PID.TID 0000.0001) > viscAr=0.E1,
(PID.TID 0000.0001) > viscAh=0.E6,
(PID.TID 0000.0001) > viscA4=0.E17,
(PID.TID 0000.0001) > no_slip_sides=.FALSE.,
(PID.TID 0000.0001) > no_slip_bottom=.FALSE.,
(PID.TID 0000.0001) > diffKhT=0.E3,
(PID.TID 0000.0001) > diffKrT=0.,
(PID.TID 0000.0001) > diffK4T=0.E17,
(PID.TID 0000.0001) > diffKrS=0.E2,
(PID.TID 0000.0001) > diffKhS=0.E3,
(PID.TID 0000.0001) > diffK4S=0.E17,
(PID.TID 0000.0001) > buoyancyRelation='ATMOSPHERIC',
(PID.TID 0000.0001) > eosType='IDEALG',
(PID.TID 0000.0001) > atm_Cp=1004.64,
(PID.TID 0000.0001) > atm_Rq=0.6078,
(PID.TID 0000.0001) > integr_GeoPot=2,
(PID.TID 0000.0001) > selectFindRoSurf=1,
(PID.TID 0000.0001) > gravity=9.80,
(PID.TID 0000.0001) > rigidLid=.FALSE.,
(PID.TID 0000.0001) > implicitFreeSurface=.TRUE.,
(PID.TID 0000.0001) > exactConserv=.TRUE.,
(PID.TID 0000.0001) > select_rStar=2,
(PID.TID 0000.0001) > nonlinFreeSurf=4,
(PID.TID 0000.0001) > hFacInf=0.2,
(PID.TID 0000.0001) > hFacSup=2.0,
(PID.TID 0000.0001) > hFacMin=1.0,
(PID.TID 0000.0001) > uniformLin_PhiSurf=.FALSE.,
(PID.TID 0000.0001) > vectorInvariantMomentum=.TRUE.,
(PID.TID 0000.0001) > useAbsVorticity=.TRUE.,
(PID.TID 0000.0001) > selectVortScheme=3,
(PID.TID 0000.0001) > selectKEscheme=3,
(PID.TID 0000.0001) > addFrictionHeating=.TRUE.,
(PID.TID 0000.0001) >#tempAdvScheme=77,
(PID.TID 0000.0001) > saltAdvScheme=77,
(PID.TID 0000.0001) > staggerTimeStep=.TRUE.,
(PID.TID 0000.0001) > readBinaryPrec=64,
(PID.TID 0000.0001) > writeBinaryPrec=64,
(PID.TID 0000.0001) >#globalFiles=.TRUE.,
(PID.TID 0000.0001) >#useSingleCpuIO=.TRUE.,
(PID.TID 0000.0001) > /
(PID.TID 0000.0001) >
(PID.TID 0000.0001) ># Elliptic solver parameters
(PID.TID 0000.0001) > &PARM02
(PID.TID 0000.0001) > cg2dMaxIters=200,
(PID.TID 0000.0001) > cg2dTargetResWunit=1.E-17,
(PID.TID 0000.0001) > /
(PID.TID 0000.0001) >
(PID.TID 0000.0001) ># Time stepping parameters
(PID.TID 0000.0001) > &PARM03
(PID.TID 0000.0001) > nIter0=0,
(PID.TID 0000.0001) > nTimeSteps=864000,
(PID.TID 0000.0001) >#endTime=311040000.,
(PID.TID 0000.0001) > deltaT=360.,
(PID.TID 0000.0001) > abEps=0.1,
(PID.TID 0000.0001) > forcing_In_AB=.FALSE.,
(PID.TID 0000.0001) > cAdjFreq=0.,
(PID.TID 0000.0001) >#- long run (> 1.yr):
(PID.TID 0000.0001) > pChkptFreq =311040000.,
(PID.TID 0000.0001) > chkptFreq  = 31104000.,
(PID.TID 0000.0001) >#pChkptFreq =248832000.,
(PID.TID 0000.0001) >#chkptFreq  = 31104000.,
(PID.TID 0000.0001) > dumpFreq   = 2592000.,
(PID.TID 0000.0001) > monitorFreq= 31104000.,
(PID.TID 0000.0001) >#- short run (~ months):
(PID.TID 0000.0001) >#pChkptFreq = 2592000.,
(PID.TID 0000.0001) >#chkptFreq  =  864000.,
(PID.TID 0000.0001) >#dumpFreq   =  432000.,
(PID.TID 0000.0001) >#monitorFreq=  43200.,
(PID.TID 0000.0001) >#- short test:
(PID.TID 0000.0001) > nTimeSteps=40,
(PID.TID 0000.0001) >#dumpFreq   =1.,
(PID.TID 0000.0001) > monitorFreq=1.,
(PID.TID 0000.0001) > /
(PID.TID 0000.0001) >
(PID.TID 0000.0001) ># Gridding parameters
(PID.TID 0000.0001) > &PARM04
(PID.TID 0000.0001) > usingCurvilinearGrid=.TRUE.,
(PID.TID 0000.0001) > horizGridFile='dxC1_dXYa',
(PID.TID 0000.0001) > radius_fromHorizGrid=6370.E3,
(PID.TID 0000.0001) >#delR=25*40.E2,
(PID.TID 0000.0001) > delR= 1500., 2122., 3000., 4242., 6000., 7800., 9100., 9400., 9280., 8400.,
(PID.TID 0000.0001) >       6980., 5800., 4820., 4004., 3328., 2766., 2298., 1910., 1586., 1318.,
(PID.TID 0000.0001) >       1096.,  910.,  756.,  628.,  522.,  434.,
(PID.TID 0000.0001) > /
(PID.TID 0000.0001) >
(PID.TID 0000.0001) ># Input datasets
(PID.TID 0000.0001) > &PARM05
(PID.TID 0000.0001) > hydrogThetaFile='ini_theta_26l.bin',
(PID.TID 0000.0001) > hydrogSaltFile ='ini_specQ_26l.bin',
(PID.TID 0000.0001) > /
(PID.TID 0000.0001) 
(PID.TID 0000.0001)  INI_PARMS ; starts to read PARM01
(PID.TID 0000.0001)  INI_PARMS ; read PARM01 : OK
(PID.TID 0000.0001)  INI_PARMS ; starts to read PARM02
(PID.TID 0000.0001)  INI_PARMS ; read PARM02 : OK
(PID.TID 0000.0001)  INI_PARMS ; starts to read PARM03
(PID.TID 0000.0001)  INI_PARMS ; read PARM03 : OK
(PID.TID 0000.0001)  INI_PARMS ; starts to read PARM04
(PID.TID 0000.0001)  INI_PARMS ; read PARM04 : OK
(PID.TID 0000.0001)  INI_PARMS ; starts to read PARM05
(PID.TID 0000.0001)  INI_PARMS ; read PARM05 : OK
(PID.TID 0000.0001)  INI_PARMS: finished reading file "data"
(PID.TID 0000.0001)  PACKAGES_BOOT: opening data.pkg
(PID.TID 0000.0001)  OPEN_COPY_DATA_FILE: opening file data.pkg
(PID.TID 0000.0001) // =======================================================
(PID.TID 0000.0001) // Parameter file "data.pkg"
(PID.TID 0000.0001) // =======================================================
(PID.TID 0000.0001) ># Packages
(PID.TID 0000.0001) > &PACKAGES
(PID.TID 0000.0001) > useSHAP_FILT=.TRUE.,
(PID.TID 0000.0001) > useDiagnostics=.TRUE.,
(PID.TID 0000.0001) > useAtm_Phys=.TRUE.,
(PID.TID 0000.0001) > useMNC = .TRUE.,
(PID.TID 0000.0001) > /
(PID.TID 0000.0001) 
(PID.TID 0000.0001)  PACKAGES_BOOT: finished reading data.pkg
(PID.TID 0000.0001)  PACKAGES_BOOT: On/Off package Summary
 --------  pkgs with a standard "usePKG" On/Off switch in "data.pkg":  --------
 pkg/shap_filt            compiled   and   used ( useSHAP_FILT             = T )
 pkg/atm_phys             compiled   and   used ( useAtm_Phys              = T )
 pkg/diagnostics          compiled   and   used ( useDiagnostics           = T )
 pkg/mnc                  compiled   and   used ( useMNC                   = T )
 -------- pkgs without standard "usePKG" On/Off switch in "data.pkg":  --------
 pkg/generic_advdiff      compiled   and   used ( useGAD                   = T )
 pkg/mom_common           compiled   and   used ( momStepping              = T )
 pkg/mom_vecinv           compiled   and   used ( +vectorInvariantMomentum = T )
 pkg/mom_fluxform         compiled but not used ( & not vectorInvariantMom = F )
 pkg/monitor              compiled   and   used ( monitorFreq > 0.         = T )
 pkg/timeave              compiled but not used ( taveFreq > 0.            = F )
 pkg/debug                compiled but not used ( debugMode                = F )
 pkg/compon_communic      compiled   and   used ( useCoupler               = T )
 pkg/atm_compon_interf    compiled   and   used ( useCoupler               = T )
 pkg/exch2                compiled   and   used
 pkg/rw                   compiled   and   used
 pkg/mdsio                compiled   and   used
(PID.TID 0000.0001)  PACKAGES_BOOT: End of package Summary
(PID.TID 0000.0001) 
 CPL_IMPORT_CPLPARMS: Recv parBuf=     0     0     0     0     0     0
(PID.TID 0000.0001)  MNC_READPARMS: opening file 'data.mnc'
(PID.TID 0000.0001)  OPEN_COPY_DATA_FILE: opening file data.mnc
(PID.TID 0000.0001) // =======================================================
(PID.TID 0000.0001) // Parameter file "data.mnc"
(PID.TID 0000.0001) // =======================================================
(PID.TID 0000.0001) ># Example "data.mnc" file
(PID.TID 0000.0001) ># Lines beginning "#" are comments
(PID.TID 0000.0001) > &MNC_01
(PID.TID 0000.0001) ># mnc_echo_gvtypes=.FALSE.,
(PID.TID 0000.0001) ># mnc_use_indir=.FALSE.,
(PID.TID 0000.0001) >  mnc_use_outdir=.TRUE.,
(PID.TID 0000.0001) >  mnc_outdir_str='mnc_test_',
(PID.TID 0000.0001) ># mnc_outdir_date=.TRUE.,
(PID.TID 0000.0001) >  monitor_mnc=.FALSE.,
(PID.TID 0000.0001) ># snapshot_mnc=.FALSE.,
(PID.TID 0000.0001) ># timeave_mnc=.FALSE.,
(PID.TID 0000.0001) >  pickup_read_mnc=.FALSE.,
(PID.TID 0000.0001) >  pickup_write_mnc=.FALSE.,
(PID.TID 0000.0001) > /
(PID.TID 0000.0001) ># Note: Some systems use & as the
(PID.TID 0000.0001) ># namelist terminator. Other systems
(PID.TID 0000.0001) ># use a / character (as shown here).
(PID.TID 0000.0001) 
(PID.TID 0000.0001)  MNC_READPARMS: finished reading data.mnc
(PID.TID 0000.0001)  SHAP_FILT_READPARMS: opening data.shap
(PID.TID 0000.0001)  OPEN_COPY_DATA_FILE: opening file data.shap
(PID.TID 0000.0001) // =======================================================
(PID.TID 0000.0001) // Parameter file "data.shap"
(PID.TID 0000.0001) // =======================================================
(PID.TID 0000.0001) ># Shapiro Filter parameters
(PID.TID 0000.0001) > &SHAP_PARM01
(PID.TID 0000.0001) > shap_filt_uvStar=.FALSE.,
(PID.TID 0000.0001) > shap_filt_TrStagg=.TRUE.,
(PID.TID 0000.0001) > Shap_funct=2,
(PID.TID 0000.0001) > nShapT=4,
(PID.TID 0000.0001) > nShapS=0,
(PID.TID 0000.0001) > nShapUV=4,
(PID.TID 0000.0001) > nShapTrPhys=1,
(PID.TID 0000.0001) > nShapUVPhys=0,
(PID.TID 0000.0001) > Shap_TrLength=140000.,
(PID.TID 0000.0001) >#Shap_TrLength=115000.,
(PID.TID 0000.0001) >#Shap_uvLength=110000.,
(PID.TID 0000.0001) >#Shap_Trtau=5400.,
(PID.TID 0000.0001) >#Shap_uvtau=5400.,
(PID.TID 0000.0001) > Shap_Trtau=1800.,
(PID.TID 0000.0001) > Shap_uvtau= 900.,
(PID.TID 0000.0001) > /
(PID.TID 0000.0001) >
(PID.TID 0000.0001) 
(PID.TID 0000.0001)  SHAP_FILT_READPARMS: finished reading data.shap
(PID.TID 0000.0001) Shap_funct =   /* select Shapiro filter function */
(PID.TID 0000.0001)                       2
(PID.TID 0000.0001)     ;
(PID.TID 0000.0001) nShapT =   /* power of Shapiro filter for Temperat */
(PID.TID 0000.0001)                       4
(PID.TID 0000.0001)     ;
(PID.TID 0000.0001) nShapS =   /* power of Shapiro filter for Salinity */
(PID.TID 0000.0001)                       0
(PID.TID 0000.0001)     ;
(PID.TID 0000.0001) nShapUV =   /* power of Shapiro filter for momentum */
(PID.TID 0000.0001)                       4
(PID.TID 0000.0001)     ;
(PID.TID 0000.0001) shap_filt_uvStar = /* apply filter before Press. Solver */
(PID.TID 0000.0001)                   F
(PID.TID 0000.0001)     ;
(PID.TID 0000.0001) shap_filt_TrStagg = /* filter T,S before calc PhiHyd (staggerTimeStep) */
(PID.TID 0000.0001)                   T
(PID.TID 0000.0001)     ;
(PID.TID 0000.0001) Shap_alwaysExchUV = /* always exch(U,V)    nShapUV times*/
(PID.TID 0000.0001)                   F
(PID.TID 0000.0001)     ;
(PID.TID 0000.0001) Shap_alwaysExchTr = /* always exch(Tracer) nShapTr times*/
(PID.TID 0000.0001)                   F
(PID.TID 0000.0001)     ;
(PID.TID 0000.0001) nShapTrPhys =   /* power of physical-space filter (Tracer) */
(PID.TID 0000.0001)                       1
(PID.TID 0000.0001)     ;
(PID.TID 0000.0001) nShapUVPhys =   /* power of physical-space filter (Momentum) */
(PID.TID 0000.0001)                       0
(PID.TID 0000.0001)     ;
(PID.TID 0000.0001) Shap_Trtau =   /* time scale of Shapiro filter (Tracer) */
(PID.TID 0000.0001)                 1.800000000000000E+03
(PID.TID 0000.0001)     ;
(PID.TID 0000.0001) Shap_TrLength =   /* Length scale of Shapiro filter (Tracer) */
(PID.TID 0000.0001)                 1.400000000000000E+05
(PID.TID 0000.0001)     ;
(PID.TID 0000.0001) Shap_uvtau =   /* time scale of Shapiro filter (Momentum) */
(PID.TID 0000.0001)                 9.000000000000000E+02
(PID.TID 0000.0001)     ;
(PID.TID 0000.0001) Shap_uvLength =   /* Length scale of Shapiro filter (Momentum) */
(PID.TID 0000.0001)                 0.000000000000000E+00
(PID.TID 0000.0001)     ;
(PID.TID 0000.0001) Shap_noSlip =  /* No-slip parameter (0=Free-slip ; 1=No-slip)*/
(PID.TID 0000.0001)                 0.000000000000000E+00
(PID.TID 0000.0001)     ;
(PID.TID 0000.0001) Shap_diagFreq =   /* Frequency^-1 for diagnostic output (s)*/
(PID.TID 0000.0001)                 0.000000000000000E+00
(PID.TID 0000.0001)     ;
(PID.TID 0000.0001) ATM_PHYS_READPARMS: opening data.atm_phys
(PID.TID 0000.0001)  OPEN_COPY_DATA_FILE: opening file data.atm_phys
(PID.TID 0000.0001) // =======================================================
(PID.TID 0000.0001) // Parameter file "data.atm_phys"
(PID.TID 0000.0001) // =======================================================
(PID.TID 0000.0001) >#
(PID.TID 0000.0001) > &ATM_PHYS_PARM01
(PID.TID 0000.0001) >#atmPhys_addTendT=.FALSE.,
(PID.TID 0000.0001) >#atmPhys_addTendS=.FALSE.,
(PID.TID 0000.0001) >#atmPhys_addTendU=.FALSE.,
(PID.TID 0000.0001) >#atmPhys_addTendV=.FALSE.,
(PID.TID 0000.0001) > atmPhys_tauDampUV = 86400.,
(PID.TID 0000.0001) > atmPhys_dampUVfac = 20*0., 0.125, 0.25, 0.5, 1., 2., 4.,
(PID.TID 0000.0001) >#- initial SST file:
(PID.TID 0000.0001) > atmPhys_SSTFile='SST_APE_1.bin',
(PID.TID 0000.0001) > atmPhys_mxldFile='MixedLayerDepth.bin',
(PID.TID 0000.0001) >#- Q-flux file:
(PID.TID 0000.0001) >#atmPhys_QflxFile='Qflux_w90.bin',
(PID.TID 0000.0001) >#- update SST (default = False = keep the same SST):
(PID.TID 0000.0001) > atmPhys_stepSST=.TRUE.,
(PID.TID 0000.0001) >#- albedo distribution file
(PID.TID 0000.0001) > atmPhys_albedoFile='Albedo.bin',
(PID.TID 0000.0001) > /
(PID.TID 0000.0001) 
(PID.TID 0000.0001) ATM_PHYS_READPARMS: finished reading data.atm_phys
(PID.TID 0000.0001)  DIAGNOSTICS_READPARMS: opening data.diagnostics
(PID.TID 0000.0001)  OPEN_COPY_DATA_FILE: opening file data.diagnostics
(PID.TID 0000.0001) // =======================================================
(PID.TID 0000.0001) // Parameter file "data.diagnostics"
(PID.TID 0000.0001) // =======================================================
(PID.TID 0000.0001) ># Diagnostic Package Choices
(PID.TID 0000.0001) >#--------------------
(PID.TID 0000.0001) >#  dumpAtLast (logical): always write output at the end of simulation (default=F)
(PID.TID 0000.0001) >#  diag_mnc   (logical): write to NetCDF files (default=useMNC)
(PID.TID 0000.0001) >#--for each output-stream:
(PID.TID 0000.0001) >#  fileName(n) : prefix of the output file name (max 80c long) for outp.stream n
(PID.TID 0000.0001) >#  frequency(n):< 0 : write snap-shot output every |frequency| seconds
(PID.TID 0000.0001) >#               > 0 : write time-average output every frequency seconds
(PID.TID 0000.0001) >#  timePhase(n)     : write at time = timePhase + multiple of |frequency|
(PID.TID 0000.0001) >#    averagingFreq  : frequency (in s) for periodic averaging interval
(PID.TID 0000.0001) >#    averagingPhase : phase     (in s) for periodic averaging interval
(PID.TID 0000.0001) >#    repeatCycle    : number of averaging intervals in 1 cycle
(PID.TID 0000.0001) >#  levels(:,n) : list of levels to write to file (Notes: declared as REAL)
(PID.TID 0000.0001) >#                when this entry is missing, select all common levels of this list
(PID.TID 0000.0001) >#  fields(:,n) : list of selected diagnostics fields (8.c) in outp.stream n
(PID.TID 0000.0001) >#                (see "available_diagnostics.log" file for the full list of diags)
(PID.TID 0000.0001) >#  missing_value(n) : missing value for real-type fields in output file "n"
(PID.TID 0000.0001) >#  fileFlags(n)     : specific code (8c string) for output file "n"
(PID.TID 0000.0001) >#--------------------
(PID.TID 0000.0001) > &DIAGNOSTICS_LIST
(PID.TID 0000.0001) ># dumpAtLast   = .TRUE.,
(PID.TID 0000.0001) >  diag_mnc     = .TRUE.,
(PID.TID 0000.0001) >#--
(PID.TID 0000.0001) >  fields(1:16,1) = 'ETAN    ','ETANSQ  ','AtPhCnvP','TFLUX',
(PID.TID 0000.0001) >                   'AtPhLscP','AtPhSens','AtPhEvap','AtPhTauX','AtPhTauY',
(PID.TID 0000.0001) >                   'AtPh_SST','AtPhInSR','AtPhOLR ',
(PID.TID 0000.0001) >                   'AtPhNSSR','AtPhDSLR','AtPhUSLR','AtPhNTSR',
(PID.TID 0000.0001) >   fileName(1) = 'Surface',
(PID.TID 0000.0001) ># fileFlags(1) = 'D       ',
(PID.TID 0000.0001) >#  frequency(1) = 518400.,
(PID.TID 0000.0001) >  frequency(1) = 31104000.,
(PID.TID 0000.0001) ># frequency(1) = 6220800000.,
(PID.TID 0000.0001) >#  averagingFreq(1) = 2592000.,
(PID.TID 0000.0001) >#    repeatCycle(1) = 12,
(PID.TID 0000.0001) ># frequency(1) = 432000.,
(PID.TID 0000.0001) >  fields(1:28,2) = 'UVEL    ','VVEL    ','WVEL    ','THETA   ','SALT    ',
(PID.TID 0000.0001) >		   'UVELMASS','VVELMASS','WVELMASS',
(PID.TID 0000.0001) >                   'UVELSQ  ','VVELSQ  ','WVELSQ  ','THETASQ ','SALTSQ  ',
(PID.TID 0000.0001) >                   'UTHMASS ','VTHMASS ','WTHMASS ',
(PID.TID 0000.0001) >		   'USLTMASS','VSLTMASS','WSLTMASS','PsiVEL',
(PID.TID 0000.0001) >		   'UVELPHI','VVELPHI','PHIHYD',
(PID.TID 0000.0001) >                   'AtPhdTdt','AtPhdQdt','AtPhdUdt','AtPhdVdt','HeatDiss',
(PID.TID 0000.0001) >#                  'AtPhdtTg','AtPhdtQg','AtPhDifT','AtPhDifM',
(PID.TID 0000.0001) >#                  'SHAP_dU ','MoistCor',
(PID.TID 0000.0001) >   fileName(2) = 'Fields',
(PID.TID 0000.0001) >  frequency(2) = 31104000.,
(PID.TID 0000.0001) ># frequency(2) = 6220800000.,
(PID.TID 0000.0001) >#  averagingFreq(2) = 2592000.,
(PID.TID 0000.0001) ># averagingPhase(2) = 0.,
(PID.TID 0000.0001) >#    repeatCycle(2) = 12,
(PID.TID 0000.0001) ># frequency(2) = 432000.,
(PID.TID 0000.0001) > /
(PID.TID 0000.0001) >
(PID.TID 0000.0001) >#--------------------
(PID.TID 0000.0001) ># Parameter for Diagnostics of per level statistics:
(PID.TID 0000.0001) >#--------------------
(PID.TID 0000.0001) >#  diagSt_mnc (logical): write stat-diags to NetCDF files (default=diag_mnc)
(PID.TID 0000.0001) >#  diagSt_regMaskFile : file containing the region-mask to read-in
(PID.TID 0000.0001) >#  nSetRegMskFile   : number of region-mask sets within the region-mask file
(PID.TID 0000.0001) >#  set_regMask(i)   : region-mask set-index that identifies the region "i"
(PID.TID 0000.0001) >#  val_regMask(i)   : region "i" identifier value in the region mask
(PID.TID 0000.0001) >#--for each output-stream:
(PID.TID 0000.0001) >#  stat_fName(n) : prefix of the output file name (max 80c long) for outp.stream n
(PID.TID 0000.0001) >#  stat_freq(n):< 0 : write snap-shot output every |stat_freq| seconds
(PID.TID 0000.0001) >#               > 0 : write time-average output every stat_freq seconds
(PID.TID 0000.0001) >#  stat_phase(n)    : write at time = stat_phase + multiple of |stat_freq|
(PID.TID 0000.0001) >#  stat_region(:,n) : list of "regions" (default: 1 region only=global)
(PID.TID 0000.0001) >#  stat_fields(:,n) : list of selected diagnostics fields (8.c) in outp.stream n
(PID.TID 0000.0001) >#                (see "available_diagnostics.log" file for the full list of diags)
(PID.TID 0000.0001) >#--------------------
(PID.TID 0000.0001) > &DIAG_STATIS_PARMS
(PID.TID 0000.0001) > stat_fields(1:11,1) = 'ETAN    ','THETA   ','SALT    ','RELHUM  ',
(PID.TID 0000.0001) >                       'UE_VEL_C','VN_VEL_C','WVEL    ',
(PID.TID 0000.0001) >                       'AtPhdTdt','AtPhdQdt','AtPhdUdt','AtPhdVdt',
(PID.TID 0000.0001) >  stat_fName(1) = 'dynStDiag',
(PID.TID 0000.0001) >   stat_freq(1) = 311040000.,
(PID.TID 0000.0001) >#  stat_freq(1) = 43200.,
(PID.TID 0000.0001) >  stat_phase(1) = 0.,
(PID.TID 0000.0001) > stat_fields(1:7,2)  = 'AtPhDifT','AtPhDifM','AtPhDisH',
(PID.TID 0000.0001) >                       'AtPhdtTg','AtPhdtQg','SHAP_dKE','MoistCor',
(PID.TID 0000.0001) >  stat_fName(2) = 'diffStDiag',
(PID.TID 0000.0001) >   stat_freq(2) = 311040000.,
(PID.TID 0000.0001) > /
(PID.TID 0000.0001) >
(PID.TID 0000.0001) 
(PID.TID 0000.0001) S/R DIAGNOSTICS_READPARMS, read namelist "diagnostics_list": start
(PID.TID 0000.0001) S/R DIAGNOSTICS_READPARMS, read namelist "diagnostics_list": OK
(PID.TID 0000.0001) S/R DIAGNOSTICS_READPARMS, read namelist "DIAG_STATIS_PARMS": start
(PID.TID 0000.0001) S/R DIAGNOSTICS_READPARMS, read namelist "DIAG_STATIS_PARMS": OK
(PID.TID 0000.0001)  DIAGNOSTICS_READPARMS: global parameter summary:
(PID.TID 0000.0001)  dumpAtLast = /* always write time-ave diags at the end */
(PID.TID 0000.0001)                   F
(PID.TID 0000.0001)     ;
(PID.TID 0000.0001)  diag_mnc =   /* write NetCDF output files */
(PID.TID 0000.0001)                   T
(PID.TID 0000.0001)     ;
(PID.TID 0000.0001)  useMissingValue = /* put MissingValue where mask = 0 */
(PID.TID 0000.0001)                   F
(PID.TID 0000.0001)     ;
(PID.TID 0000.0001)  diagCG_maxIters = /* max number of iters in diag_cg2d */
(PID.TID 0000.0001)                     200
(PID.TID 0000.0001)     ;
(PID.TID 0000.0001)  diagCG_resTarget = /* residual target for diag_cg2d */
(PID.TID 0000.0001)                 1.000000000000000E-07
(PID.TID 0000.0001)     ;
(PID.TID 0000.0001)  diagCG_pcOffDFac = /* preconditioner off-diagonal factor */
(PID.TID 0000.0001)                 9.611687812379854E-01
(PID.TID 0000.0001)     ;
(PID.TID 0000.0001) -----------------------------------------------------
(PID.TID 0000.0001)  DIAGNOSTICS_READPARMS: active diagnostics summary:
(PID.TID 0000.0001) -----------------------------------------------------
(PID.TID 0000.0001) Creating Output Stream: Surface
(PID.TID 0000.0001) Output Frequency:   31104000.000000 ; Phase:           0.000000
(PID.TID 0000.0001)  Averaging Freq.:   31104000.000000 , Phase:           0.000000 , Cycle:   1
(PID.TID 0000.0001)  missing value: -9.990000000000E+02
(PID.TID 0000.0001)  Levels:    will be set later
(PID.TID 0000.0001)  Fields:    ETAN     ETANSQ   AtPhCnvP TFLUX    AtPhLscP AtPhSens AtPhEvap AtPhTauX AtPhTauY AtPh_SST
(PID.TID 0000.0001)  Fields:    AtPhInSR AtPhOLR  AtPhNSSR AtPhDSLR AtPhUSLR AtPhNTSR
(PID.TID 0000.0001) Creating Output Stream: Fields
(PID.TID 0000.0001) Output Frequency:   31104000.000000 ; Phase:           0.000000
(PID.TID 0000.0001)  Averaging Freq.:   31104000.000000 , Phase:           0.000000 , Cycle:   1
(PID.TID 0000.0001)  missing value: -9.990000000000E+02
(PID.TID 0000.0001)  Levels:    will be set later
(PID.TID 0000.0001)  Fields:    UVEL     VVEL     WVEL     THETA    SALT     UVELMASS VVELMASS WVELMASS UVELSQ   VVELSQ
(PID.TID 0000.0001)  Fields:    WVELSQ   THETASQ  SALTSQ   UTHMASS  VTHMASS  WTHMASS  USLTMASS VSLTMASS WSLTMASS PsiVEL
(PID.TID 0000.0001)  Fields:    UVELPHI  VVELPHI  PHIHYD   AtPhdTdt AtPhdQdt AtPhdUdt AtPhdVdt HeatDiss
(PID.TID 0000.0001) -----------------------------------------------------
(PID.TID 0000.0001)  DIAGNOSTICS_READPARMS: statistics diags. summary:
(PID.TID 0000.0001) Creating Stats. Output Stream: dynStDiag
(PID.TID 0000.0001) Output Frequency:  311040000.000000 ; Phase:           0.000000
(PID.TID 0000.0001)  Regions:   0
(PID.TID 0000.0001)  Fields:    ETAN     THETA    SALT     RELHUM   UE_VEL_C VN_VEL_C WVEL     AtPhdTdt AtPhdQdt AtPhdUdt
(PID.TID 0000.0001)  Fields:    AtPhdVdt
(PID.TID 0000.0001) Creating Stats. Output Stream: diffStDiag
(PID.TID 0000.0001) Output Frequency:  311040000.000000 ; Phase:           0.000000
(PID.TID 0000.0001)  Regions:   0
(PID.TID 0000.0001)  Fields:    AtPhDifT AtPhDifM AtPhDisH AtPhdtTg AtPhdtQg SHAP_dKE MoistCor
(PID.TID 0000.0001) -----------------------------------------------------
(PID.TID 0000.0001) 
(PID.TID 0000.0001)  CPL_READPARMS: opening data.cpl
(PID.TID 0000.0001)  OPEN_COPY_DATA_FILE: opening file data.cpl
(PID.TID 0000.0001) // =======================================================
(PID.TID 0000.0001) // Parameter file "data.cpl"
(PID.TID 0000.0001) // =======================================================
(PID.TID 0000.0001) ># Coupling package parameters, ATM component:
(PID.TID 0000.0001) >#    cpl_oldPickup   :: restart from an old pickup (= until ckpt 59h)
(PID.TID 0000.0001) >#    useImportMxlD   :: True => use Imported Mix.Layer Detph from coupler
(PID.TID 0000.0001) >#    useImportSST    :: True => use the Imported SST from coupler
(PID.TID 0000.0001) >#    useImportSSS    :: True => use the Imported SSS from coupler
(PID.TID 0000.0001) >#    useImportVsq    :: True => use the Imported Surf. velocity^2
(PID.TID 0000.0001) >#    useImportThSIce :: True => use the Imported thSIce state var from coupler
(PID.TID 0000.0001) >#    useImportFlxCO2 :: True => use the Imported air-sea CO2 flux from coupler
(PID.TID 0000.0001) >#    cpl_atmSendFrq  :: Frequency^-1 for sending data to coupler (s)
(PID.TID 0000.0001) >#    maxNumberPrint  :: max number of printed Exp/Imp messages
(PID.TID 0000.0001) > &CPL_ATM_PARAM
(PID.TID 0000.0001) ># cpl_oldPickup  =.TRUE.,
(PID.TID 0000.0001) >  useImportMxlD  =.FALSE.,
(PID.TID 0000.0001) ># useImportSST   =.FALSE.,
(PID.TID 0000.0001) >  useImportSSS   =.FALSE.,
(PID.TID 0000.0001) >  useImportVsq   =.FALSE.,
(PID.TID 0000.0001) ># useImportThSIce=.FALSE.,
(PID.TID 0000.0001) ># useImportFlxCO2=.FALSE.,
(PID.TID 0000.0001) >  cpl_atmSendFrq = 2880.,
(PID.TID 0000.0001) > /
(PID.TID 0000.0001) 
(PID.TID 0000.0001)  CPL_READPARMS: finished reading data.cpl
(PID.TID 0000.0001) 
(PID.TID 0000.0001) // ===================================
(PID.TID 0000.0001) // Coupling set-up summary :
(PID.TID 0000.0001) // ===================================
(PID.TID 0000.0001) // -------
(PID.TID 0000.0001) // Coupler-exchange switch (received from coupler):
(PID.TID 0000.0001) atm_cplSequential = /* use Sequential Coupling Exchange on/off flag */
(PID.TID 0000.0001)                   F
(PID.TID 0000.0001)     ;
(PID.TID 0000.0001) atm_cplExch_RunOff = /* exchange RunOff fields with coupler on/off */
(PID.TID 0000.0001)                   F
(PID.TID 0000.0001)     ;
(PID.TID 0000.0001) atm_cplExch1W_sIce = /* 1-way exchange of seaice vars with coupler */
(PID.TID 0000.0001)                   F
(PID.TID 0000.0001)     ;
(PID.TID 0000.0001) atm_cplExch2W_sIce = /* 2-way exchange of ThSIce vars with coupler */
(PID.TID 0000.0001)                   F
(PID.TID 0000.0001)     ;
(PID.TID 0000.0001) atm_cplExch_SaltPl = /* exchange Salt-Plume fields with coupler */
(PID.TID 0000.0001)                   F
(PID.TID 0000.0001)     ;
(PID.TID 0000.0001) atm_cplExch_DIC    = /* exchange DIC    fields with coupler on/off */
(PID.TID 0000.0001)                   F
(PID.TID 0000.0001)     ;
(PID.TID 0000.0001) // -------
(PID.TID 0000.0001) // Coupler parameters (from local param file):
(PID.TID 0000.0001) cpl_oldPickup = /* restart from old pickup on/off flag */
(PID.TID 0000.0001)                   F
(PID.TID 0000.0001)     ;
(PID.TID 0000.0001) useImportMxlD = /* use Imported MxL. Depth from Coupler flag */
(PID.TID 0000.0001)                   F
(PID.TID 0000.0001)     ;
(PID.TID 0000.0001) useImportSST  = /* use Imported SST from Coupler on/off flag */
(PID.TID 0000.0001)                   T
(PID.TID 0000.0001)     ;
(PID.TID 0000.0001) useImportSSS  = /* use Imported SSS from Coupler on/off flag */
(PID.TID 0000.0001)                   F
(PID.TID 0000.0001)     ;
(PID.TID 0000.0001) useImportVsq  = /* use Imported surf.Vel^2 from Coupler flag */
(PID.TID 0000.0001)                   F
(PID.TID 0000.0001)     ;
(PID.TID 0000.0001) useImportThSIce= /* use Imported thSIce state-var fr Cpl. flag */
(PID.TID 0000.0001)                   F
(PID.TID 0000.0001)     ;
(PID.TID 0000.0001) useImportFlxCO2= /* use Imported air-sea CO2 flux fr Cpl.  flag */
(PID.TID 0000.0001)                   F
(PID.TID 0000.0001)     ;
(PID.TID 0000.0001) cpl_atmSendFrq = /* Frequency^o-1 for sending data to Coupler (s) */
(PID.TID 0000.0001)                 2.880000000000000E+03
(PID.TID 0000.0001)     ;
(PID.TID 0000.0001) cplSendFrq_iter = /* send data to coupler every "cplSendFrq" iter */
(PID.TID 0000.0001)                       8
(PID.TID 0000.0001)     ;
(PID.TID 0000.0001) maxNumberPrint = /* max number of printed Exp/Imp messages */
(PID.TID 0000.0001)                     100
(PID.TID 0000.0001)     ;
(PID.TID 0000.0001) // ===================================
(PID.TID 0000.0001) // End of Coupling set-up summary
(PID.TID 0000.0001) // ===================================
(PID.TID 0000.0001) SET_PARMS: done
(PID.TID 0000.0001) Enter INI_VERTICAL_GRID: setInterFDr=    T ; setCenterDr=    F
(PID.TID 0000.0001) tile:   1 ; Read from file dxC1_dXYa.face001.bin
(PID.TID 0000.0001)   => xC yC dxF dyF rA xG yG dxV dyU rAz dxC dyC rAw rAs dxG dyG AngleCS AngleSN
(PID.TID 0000.0001) tile:   2 ; Read from file dxC1_dXYa.face002.bin
(PID.TID 0000.0001)   => xC yC dxF dyF rA xG yG dxV dyU rAz dxC dyC rAw rAs dxG dyG AngleCS AngleSN
(PID.TID 0000.0001) tile:   3 ; Read from file dxC1_dXYa.face003.bin
(PID.TID 0000.0001)   => xC yC dxF dyF rA xG yG dxV dyU rAz dxC dyC rAw rAs dxG dyG AngleCS AngleSN
(PID.TID 0000.0001) tile:   4 ; Read from file dxC1_dXYa.face004.bin
(PID.TID 0000.0001)   => xC yC dxF dyF rA xG yG dxV dyU rAz dxC dyC rAw rAs dxG dyG AngleCS AngleSN
(PID.TID 0000.0001) tile:   5 ; Read from file dxC1_dXYa.face005.bin
(PID.TID 0000.0001)   => xC yC dxF dyF rA xG yG dxV dyU rAz dxC dyC rAw rAs dxG dyG AngleCS AngleSN
(PID.TID 0000.0001) tile:   6 ; Read from file dxC1_dXYa.face006.bin
(PID.TID 0000.0001)   => xC yC dxF dyF rA xG yG dxV dyU rAz dxC dyC rAw rAs dxG dyG AngleCS AngleSN
(PID.TID 0000.0001) %MON XC_max                       =   1.7854351589505E+02
(PID.TID 0000.0001) %MON XC_min                       =  -1.7854351589505E+02
(PID.TID 0000.0001) %MON XC_mean                      =  -4.6999441375798E-15
(PID.TID 0000.0001) %MON XC_sd                        =   1.0355545336287E+02
(PID.TID 0000.0001) %MON XG_max                       =   1.8000000000000E+02
(PID.TID 0000.0001) %MON XG_min                       =  -1.7708797161002E+02
(PID.TID 0000.0001) %MON XG_mean                      =   1.8603515625000E+00
(PID.TID 0000.0001) %MON XG_sd                        =   1.0357130300504E+02
(PID.TID 0000.0001) %MON DXC_max                      =   3.2375185836900E+05
(PID.TID 0000.0001) %MON DXC_min                      =   1.1353730006923E+05
(PID.TID 0000.0001) %MON DXC_mean                     =   2.8606102525036E+05
(PID.TID 0000.0001) %MON DXC_sd                       =   3.4020997630307E+04
(PID.TID 0000.0001) %MON DXF_max                      =   3.2369947500827E+05
(PID.TID 0000.0001) %MON DXF_min                      =   1.2020820513318E+05
(PID.TID 0000.0001) %MON DXF_mean                     =   2.8605437324820E+05
(PID.TID 0000.0001) %MON DXF_sd                       =   3.4050524252539E+04
(PID.TID 0000.0001) %MON DXG_max                      =   3.2375195872773E+05
(PID.TID 0000.0001) %MON DXG_min                      =   1.0098378008791E+05
(PID.TID 0000.0001) %MON DXG_mean                     =   2.8603818508931E+05
(PID.TID 0000.0001) %MON DXG_sd                       =   3.4140406908005E+04
(PID.TID 0000.0001) %MON DXV_max                      =   3.2380418162750E+05
(PID.TID 0000.0001) %MON DXV_min                      =   8.0152299824136E+04
(PID.TID 0000.0001) %MON DXV_mean                     =   2.8603970633619E+05
(PID.TID 0000.0001) %MON DXV_sd                       =   3.4145142117723E+04
(PID.TID 0000.0001) %MON YC_max                       =   8.7940663871962E+01
(PID.TID 0000.0001) %MON YC_min                       =  -8.7940663871962E+01
(PID.TID 0000.0001) %MON YC_mean                      =   0.0000000000000E+00
(PID.TID 0000.0001) %MON YC_sd                        =   3.8676242969072E+01
(PID.TID 0000.0001) %MON YG_max                       =   9.0000000000000E+01
(PID.TID 0000.0001) %MON YG_min                       =  -9.0000000000000E+01
(PID.TID 0000.0001) %MON YG_mean                      =  -1.1842378929335E-15
(PID.TID 0000.0001) %MON YG_sd                        =   3.8676895860710E+01
(PID.TID 0000.0001) %MON DYC_max                      =   3.2375185836900E+05
(PID.TID 0000.0001) %MON DYC_min                      =   1.1353730006923E+05
(PID.TID 0000.0001) %MON DYC_mean                     =   2.8606102525036E+05
(PID.TID 0000.0001) %MON DYC_sd                       =   3.4020997630307E+04
(PID.TID 0000.0001) %MON DYF_max                      =   3.2369947500827E+05
(PID.TID 0000.0001) %MON DYF_min                      =   1.2020820513318E+05
(PID.TID 0000.0001) %MON DYF_mean                     =   2.8605437324820E+05
(PID.TID 0000.0001) %MON DYF_sd                       =   3.4050524252539E+04
(PID.TID 0000.0001) %MON DYG_max                      =   3.2375195872773E+05
(PID.TID 0000.0001) %MON DYG_min                      =   1.0098378008791E+05
(PID.TID 0000.0001) %MON DYG_mean                     =   2.8603818508931E+05
(PID.TID 0000.0001) %MON DYG_sd                       =   3.4140406908005E+04
(PID.TID 0000.0001) %MON DYU_max                      =   3.2380418162750E+05
(PID.TID 0000.0001) %MON DYU_min                      =   8.0152299824136E+04
(PID.TID 0000.0001) %MON DYU_mean                     =   2.8603970633619E+05
(PID.TID 0000.0001) %MON DYU_sd                       =   3.4145142117723E+04
(PID.TID 0000.0001) %MON RA_max                       =   1.0474757731659E+11
(PID.TID 0000.0001) %MON RA_min                       =   1.5497867056722E+10
(PID.TID 0000.0001) %MON RA_mean                      =   8.2985711332657E+10
(PID.TID 0000.0001) %MON RA_sd                        =   1.7448591913787E+10
(PID.TID 0000.0001) %MON RAW_max                      =   1.0481529828871E+11
(PID.TID 0000.0001) %MON RAW_min                      =   1.1465425741966E+10
(PID.TID 0000.0001) %MON RAW_mean                     =   8.2985711332657E+10
(PID.TID 0000.0001) %MON RAW_sd                       =   1.7503889570793E+10
(PID.TID 0000.0001) %MON RAS_max                      =   1.0481529828871E+11
(PID.TID 0000.0001) %MON RAS_min                      =   1.1465425741966E+10
(PID.TID 0000.0001) %MON RAS_mean                     =   8.2985711332657E+10
(PID.TID 0000.0001) %MON RAS_sd                       =   1.7503889570793E+10
(PID.TID 0000.0001) %MON RAZ_max                      =   1.0484349334619E+11
(PID.TID 0000.0001) %MON RAZ_min                      =   8.8317900612505E+09
(PID.TID 0000.0001) %MON RAZ_mean                     =   8.2992246709235E+10
(PID.TID 0000.0001) %MON RAZ_sd                       =   1.7482297311044E+10
(PID.TID 0000.0001) %MON AngleCS_max                  =   9.9999994756719E-01
(PID.TID 0000.0001) %MON AngleCS_min                  =  -9.9968286884824E-01
(PID.TID 0000.0001) %MON AngleCS_mean                 =   3.3078922539000E-01
(PID.TID 0000.0001) %MON AngleCS_sd                   =   6.2496278958502E-01
(PID.TID 0000.0001) %MON AngleSN_max                  =   9.9968286884824E-01
(PID.TID 0000.0001) %MON AngleSN_min                  =  -9.9999994756719E-01
(PID.TID 0000.0001) %MON AngleSN_mean                 =  -3.3078922539000E-01
(PID.TID 0000.0001) %MON AngleSN_sd                   =   6.2496278958502E-01
(PID.TID 0000.0001) 
(PID.TID 0000.0001) SET_REF_STATE: PhiRef/g [m] at level Center (integer)
(PID.TID 0000.0001)                      and at level Interface (half-int.) :
(PID.TID 0000.0001)  K=  0.5  ;  r=       100000.0  ;  phiRef/g=        0.000
(PID.TID 0000.0001)  K=  1.0  ;  r=        99250.0  ;  phiRef/g=       65.000
(PID.TID 0000.0001)  K=  1.5  ;  r=        98500.0  ;  phiRef/g=      144.206
(PID.TID 0000.0001)  K=  2.0  ;  r=        97439.0  ;  phiRef/g=      223.413
(PID.TID 0000.0001)  K=  2.5  ;  r=        96378.0  ;  phiRef/g=      337.236
(PID.TID 0000.0001)  K=  3.0  ;  r=        94878.0  ;  phiRef/g=      451.060
(PID.TID 0000.0001)  K=  3.5  ;  r=        93378.0  ;  phiRef/g=      615.802
(PID.TID 0000.0001)  K=  4.0  ;  r=        91257.0  ;  phiRef/g=      780.544
(PID.TID 0000.0001)  K=  4.5  ;  r=        89136.0  ;  phiRef/g=     1021.698
(PID.TID 0000.0001)  K=  5.0  ;  r=        86136.0  ;  phiRef/g=     1262.852
(PID.TID 0000.0001)  K=  5.5  ;  r=        83136.0  ;  phiRef/g=     1604.545
(PID.TID 0000.0001)  K=  6.0  ;  r=        79236.0  ;  phiRef/g=     1946.238
(PID.TID 0000.0001)  K=  6.5  ;  r=        75336.0  ;  phiRef/g=     2394.973
(PID.TID 0000.0001)  K=  7.0  ;  r=        70786.0  ;  phiRef/g=     2843.709
(PID.TID 0000.0001)  K=  7.5  ;  r=        66236.0  ;  phiRef/g=     3381.201
(PID.TID 0000.0001)  K=  8.0  ;  r=        61536.0  ;  phiRef/g=     3918.694
(PID.TID 0000.0001)  K=  8.5  ;  r=        56836.0  ;  phiRef/g=     4523.627
(PID.TID 0000.0001)  K=  9.0  ;  r=        52196.0  ;  phiRef/g=     5128.560
(PID.TID 0000.0001)  K=  9.5  ;  r=        47556.0  ;  phiRef/g=     5777.201
(PID.TID 0000.0001)  K= 10.0  ;  r=        43356.0  ;  phiRef/g=     6425.843
(PID.TID 0000.0001)  K= 10.5  ;  r=        39156.0  ;  phiRef/g=     7072.216
(PID.TID 0000.0001)  K= 11.0  ;  r=        35666.0  ;  phiRef/g=     7718.589
(PID.TID 0000.0001)  K= 11.5  ;  r=        32176.0  ;  phiRef/g=     8336.533
(PID.TID 0000.0001)  K= 12.0  ;  r=        29276.0  ;  phiRef/g=     8954.478
(PID.TID 0000.0001)  K= 12.5  ;  r=        26376.0  ;  phiRef/g=     9546.297
(PID.TID 0000.0001)  K= 13.0  ;  r=        23966.0  ;  phiRef/g=    10138.117
(PID.TID 0000.0001)  K= 13.5  ;  r=        21556.0  ;  phiRef/g=    10706.062
(PID.TID 0000.0001)  K= 14.0  ;  r=        19554.0  ;  phiRef/g=    11274.007
(PID.TID 0000.0001)  K= 14.5  ;  r=        17552.0  ;  phiRef/g=    11820.513
(PID.TID 0000.0001)  K= 15.0  ;  r=        15888.0  ;  phiRef/g=    12367.018
(PID.TID 0000.0001)  K= 15.5  ;  r=        14224.0  ;  phiRef/g=    12894.813
(PID.TID 0000.0001)  K= 16.0  ;  r=        12841.0  ;  phiRef/g=    13422.607
(PID.TID 0000.0001)  K= 16.5  ;  r=        11458.0  ;  phiRef/g=    13934.405
(PID.TID 0000.0001)  K= 17.0  ;  r=        10309.0  ;  phiRef/g=    14446.203
(PID.TID 0000.0001)  K= 17.5  ;  r=         9160.0  ;  phiRef/g=    14945.188
(PID.TID 0000.0001)  K= 18.0  ;  r=         8205.0  ;  phiRef/g=    15444.173
(PID.TID 0000.0001)  K= 18.5  ;  r=         7250.0  ;  phiRef/g=    15934.021
(PID.TID 0000.0001)  K= 19.0  ;  r=         6457.0  ;  phiRef/g=    16423.869
(PID.TID 0000.0001)  K= 19.5  ;  r=         5664.0  ;  phiRef/g=    16909.194
(PID.TID 0000.0001)  K= 20.0  ;  r=         5005.0  ;  phiRef/g=    17394.518
(PID.TID 0000.0001)  K= 20.5  ;  r=         4346.0  ;  phiRef/g=    17881.933
(PID.TID 0000.0001)  K= 21.0  ;  r=         3798.0  ;  phiRef/g=    18369.347
(PID.TID 0000.0001)  K= 21.5  ;  r=         3250.0  ;  phiRef/g=    18867.727
(PID.TID 0000.0001)  K= 22.0  ;  r=         2795.0  ;  phiRef/g=    19366.107
(PID.TID 0000.0001)  K= 22.5  ;  r=         2340.0  ;  phiRef/g=    19889.510
(PID.TID 0000.0001)  K= 23.0  ;  r=         1962.0  ;  phiRef/g=    20412.912
(PID.TID 0000.0001)  K= 23.5  ;  r=         1584.0  ;  phiRef/g=    20987.805
(PID.TID 0000.0001)  K= 24.0  ;  r=         1270.0  ;  phiRef/g=    21562.697
(PID.TID 0000.0001)  K= 24.5  ;  r=          956.0  ;  phiRef/g=    22250.139
(PID.TID 0000.0001)  K= 25.0  ;  r=          695.0  ;  phiRef/g=    22937.580
(PID.TID 0000.0001)  K= 25.5  ;  r=          434.0  ;  phiRef/g=    23972.294
(PID.TID 0000.0001)  K= 26.0  ;  r=          217.0  ;  phiRef/g=    25007.007
(PID.TID 0000.0001)  K= 26.5  ;  r=            0.0  ;  phiRef/g=    30251.966
(PID.TID 0000.0001) // =======================================================
(PID.TID 0000.0001) // Field Model R_low (ini_masks_etc)
(PID.TID 0000.0001) // CMIN =          1.000000000000000E+32
(PID.TID 0000.0001) // CMAX =         -1.000000000000000E+32
(PID.TID 0000.0001) // CINT =          0.000000000000000E+00
(PID.TID 0000.0001) // SYMBOLS (CMIN->CMAX): -abcdefghijklmnopqrstuvwxyz+
(PID.TID 0000.0001) //                  0.0: .
(PID.TID 0000.0001) // RANGE I (Lo:Hi:Step):(    -3:   196:     1)
(PID.TID 0000.0001) // RANGE J (Lo:Hi:Step):(    36:    -3:    -1)
(PID.TID 0000.0001) // RANGE K (Lo:Hi:Step):(   1:   1:   1)
(PID.TID 0000.0001) // =======================================================
(PID.TID 0000.0001) // =======================================================
(PID.TID 0000.0001) // END OF FIELD                                          =
(PID.TID 0000.0001) // =======================================================
(PID.TID 0000.0001) 
(PID.TID 0000.0001) // =======================================================
(PID.TID 0000.0001) // Field Model Ro_surf (ini_masks_etc)
(PID.TID 0000.0001) // CMIN =          1.000000000000000E+05
(PID.TID 0000.0001) // CMAX =          1.000000000000000E+05
(PID.TID 0000.0001) // CINT =          0.000000000000000E+00
(PID.TID 0000.0001) // SYMBOLS (CMIN->CMAX): -abcdefghijklmnopqrstuvwxyz+
(PID.TID 0000.0001) //                  0.0: .
(PID.TID 0000.0001) // RANGE I (Lo:Hi:Step):(    -3:   196:     1)
(PID.TID 0000.0001) // RANGE J (Lo:Hi:Step):(    36:    -3:    -1)
(PID.TID 0000.0001) // RANGE K (Lo:Hi:Step):(   1:   1:   1)
(PID.TID 0000.0001) // =======================================================
(PID.TID 0000.0001) // =======================================================
(PID.TID 0000.0001) // END OF FIELD                                          =
(PID.TID 0000.0001) // =======================================================
(PID.TID 0000.0001) 
(PID.TID 0000.0001) // =======================================================
(PID.TID 0000.0001) // Field hFacC at iteration          0
(PID.TID 0000.0001) // CMIN =          1.000000000000000E+00
(PID.TID 0000.0001) // CMAX =          1.000000000000000E+00
(PID.TID 0000.0001) // CINT =          0.000000000000000E+00
(PID.TID 0000.0001) // SYMBOLS (CMIN->CMAX): -abcdefghijklmnopqrstuvwxyz+
(PID.TID 0000.0001) //                  0.0: .
(PID.TID 0000.0001) // RANGE I (Lo:Hi:Step):(    -3:   196:     1)
(PID.TID 0000.0001) // RANGE J (Lo:Hi:Step):(    36:    -3:    -1)
(PID.TID 0000.0001) // RANGE K (Lo:Hi:Step):(   1:   1:   1)
(PID.TID 0000.0001) // =======================================================
(PID.TID 0000.0001) // =======================================================
(PID.TID 0000.0001) // END OF FIELD                                          =
(PID.TID 0000.0001) // =======================================================
(PID.TID 0000.0001) 
(PID.TID 0000.0001) // =======================================================
(PID.TID 0000.0001) // Field hFacW at iteration          0
(PID.TID 0000.0001) // CMIN =          1.000000000000000E+00
(PID.TID 0000.0001) // CMAX =          1.000000000000000E+00
(PID.TID 0000.0001) // CINT =          0.000000000000000E+00
(PID.TID 0000.0001) // SYMBOLS (CMIN->CMAX): -abcdefghijklmnopqrstuvwxyz+
(PID.TID 0000.0001) //                  0.0: .
(PID.TID 0000.0001) // RANGE I (Lo:Hi:Step):(    -3:   196:     1)
(PID.TID 0000.0001) // RANGE J (Lo:Hi:Step):(    36:    -3:    -1)
(PID.TID 0000.0001) // RANGE K (Lo:Hi:Step):(   1:   1:   1)
(PID.TID 0000.0001) // =======================================================
(PID.TID 0000.0001) // =======================================================
(PID.TID 0000.0001) // END OF FIELD                                          =
(PID.TID 0000.0001) // =======================================================
(PID.TID 0000.0001) 
(PID.TID 0000.0001) // =======================================================
(PID.TID 0000.0001) // Field hFacS at iteration          0
(PID.TID 0000.0001) // CMIN =          1.000000000000000E+00
(PID.TID 0000.0001) // CMAX =          1.000000000000000E+00
(PID.TID 0000.0001) // CINT =          0.000000000000000E+00
(PID.TID 0000.0001) // SYMBOLS (CMIN->CMAX): -abcdefghijklmnopqrstuvwxyz+
(PID.TID 0000.0001) //                  0.0: .
(PID.TID 0000.0001) // RANGE I (Lo:Hi:Step):(    -3:   196:     1)
(PID.TID 0000.0001) // RANGE J (Lo:Hi:Step):(    36:    -3:    -1)
(PID.TID 0000.0001) // RANGE K (Lo:Hi:Step):(   1:   1:   1)
(PID.TID 0000.0001) // =======================================================
(PID.TID 0000.0001) // =======================================================
(PID.TID 0000.0001) // END OF FIELD                                          =
(PID.TID 0000.0001) // =======================================================
(PID.TID 0000.0001) 
(PID.TID 0000.0001) GAD_INIT_FIXED: GAD_OlMinSize=  2  0  2
(PID.TID 0000.0001) 
(PID.TID 0000.0001) // ===================================
(PID.TID 0000.0001) // GAD parameters :
(PID.TID 0000.0001) // ===================================
(PID.TID 0000.0001) tempAdvScheme =   /* Temp. Horiz.Advection scheme selector */
(PID.TID 0000.0001)                       2
(PID.TID 0000.0001)     ;
(PID.TID 0000.0001) tempVertAdvScheme =   /* Temp. Vert. Advection scheme selector */
(PID.TID 0000.0001)                       2
(PID.TID 0000.0001)     ;
(PID.TID 0000.0001) tempMultiDimAdvec =   /* use Muti-Dim Advec method for Temp */
(PID.TID 0000.0001)                   F
(PID.TID 0000.0001)     ;
(PID.TID 0000.0001) tempSOM_Advection = /* use 2nd Order Moment Advection for Temp */
(PID.TID 0000.0001)                   F
(PID.TID 0000.0001)     ;
(PID.TID 0000.0001) AdamsBashforthGt = /* apply Adams-Bashforth extrapolation on Gt */
(PID.TID 0000.0001)                   T
(PID.TID 0000.0001)     ;
(PID.TID 0000.0001) AdamsBashforth_T = /* apply Adams-Bashforth extrapolation on Temp */
(PID.TID 0000.0001)                   F
(PID.TID 0000.0001)     ;
(PID.TID 0000.0001) saltAdvScheme =   /* Salt. Horiz.advection scheme selector */
(PID.TID 0000.0001)                      77
(PID.TID 0000.0001)     ;
(PID.TID 0000.0001) saltVertAdvScheme =   /* Salt. Vert. Advection scheme selector */
(PID.TID 0000.0001)                      77
(PID.TID 0000.0001)     ;
(PID.TID 0000.0001) saltMultiDimAdvec =   /* use Muti-Dim Advec method for Salt */
(PID.TID 0000.0001)                   T
(PID.TID 0000.0001)     ;
(PID.TID 0000.0001) saltSOM_Advection = /* use 2nd Order Moment Advection for Salt */
(PID.TID 0000.0001)                   F
(PID.TID 0000.0001)     ;
(PID.TID 0000.0001) AdamsBashforthGs = /* apply Adams-Bashforth extrapolation on Gs */
(PID.TID 0000.0001)                   F
(PID.TID 0000.0001)     ;
(PID.TID 0000.0001) AdamsBashforth_S = /* apply Adams-Bashforth extrapolation on Salt */
(PID.TID 0000.0001)                   F
(PID.TID 0000.0001)     ;
(PID.TID 0000.0001) // ===================================
(PID.TID 0000.0001) ATM_PHYS_INIT_FIXED: opening data.atm_gray
(PID.TID 0000.0001)  OPEN_COPY_DATA_FILE: opening file data.atm_gray
(PID.TID 0000.0001) // =======================================================
(PID.TID 0000.0001) // Parameter file "data.atm_gray"
(PID.TID 0000.0001) // =======================================================
(PID.TID 0000.0001) >
(PID.TID 0000.0001) > &atmosphere_nml
(PID.TID 0000.0001) >    turb = .TRUE.,
(PID.TID 0000.0001) >    ldry_convection = .false.,
(PID.TID 0000.0001) >    lwet_convection = .TRUE.,
(PID.TID 0000.0001) >    do_virtual = .false.,
(PID.TID 0000.0001) >    two_stream = .true.,
(PID.TID 0000.0001) >    mixed_layer_bc = .false.,
(PID.TID 0000.0001) >    roughness_heat = 0.05,
(PID.TID 0000.0001) >    roughness_moist = 0.05,
(PID.TID 0000.0001) >    roughness_mom = 0.05,
(PID.TID 0000.0001) > /
(PID.TID 0000.0001) >
(PID.TID 0000.0001) > &radiation_nml
(PID.TID 0000.0001) >  select_incSW  = 1,
(PID.TID 0000.0001) >  solar_constant= 1365.,
(PID.TID 0000.0001) ># yearLength=
(PID.TID 0000.0001) ># yearPhase =
(PID.TID 0000.0001) ># obliquity =
(PID.TID 0000.0001) >  del_sol=1.,
(PID.TID 0000.0001) ># ir_tau_eq=
(PID.TID 0000.0001) ># ir_tau_pole=
(PID.TID 0000.0001) ># atm_abs= 0.22,
(PID.TID 0000.0001) ># value that Ruth is using as default:
(PID.TID 0000.0001) ># atm_abs= 0.2486,
(PID.TID 0000.0001) ># sw_diff=
(PID.TID 0000.0001) ># linear_tau=
(PID.TID 0000.0001) ># del_sw=
(PID.TID 0000.0001) >  albedo_value=0.3,
(PID.TID 0000.0001) ># window=
(PID.TID 0000.0001) ># wv_exponent=
(PID.TID 0000.0001) ># solar_exponent=
(PID.TID 0000.0001) >  wv_exponent=0.,
(PID.TID 0000.0001) >  ir_tau_co2 = 0.8678,
(PID.TID 0000.0001) > /
(PID.TID 0000.0001) >
(PID.TID 0000.0001) > &lscale_cond_nml
(PID.TID 0000.0001) ># hc =
(PID.TID 0000.0001) ># do_evap=
(PID.TID 0000.0001) > /
(PID.TID 0000.0001) >
(PID.TID 0000.0001) > &dargan_bettsmiller_nml
(PID.TID 0000.0001) >#-- default:
(PID.TID 0000.0001) >#   tau_bm = 7200.,
(PID.TID 0000.0001) >#   rhbm   = 0.8,
(PID.TID 0000.0001) >#   do_virtual   = .FALSE.,
(PID.TID 0000.0001) >#   do_shallower = .FALSE.,
(PID.TID 0000.0001) >#   do_changeqref= .FALSE.,
(PID.TID 0000.0001) >#   do_envsat    = .FALSE.,
(PID.TID 0000.0001) >#   do_taucape   = .FALSE.,
(PID.TID 0000.0001) >#     capetaubm  = 900.,
(PID.TID 0000.0001) >#     tau_min    = 2400.,
(PID.TID 0000.0001) >#   do_bm_shift  = .FALSE.,
(PID.TID 0000.0001) >#-- POG choice:
(PID.TID 0000.0001) >#  rhbm = 0.7,
(PID.TID 0000.0001) >   do_virtual= .TRUE.,
(PID.TID 0000.0001) >   do_shallower= .TRUE.,
(PID.TID 0000.0001) > /
(PID.TID 0000.0001) >
(PID.TID 0000.0001) > &surface_flux_nml
(PID.TID 0000.0001) > /
(PID.TID 0000.0001) >
(PID.TID 0000.0001) > &vert_turb_driver_nml
(PID.TID 0000.0001) >#  do_shallow_conv, do_mellor_yamada,
(PID.TID 0000.0001) >#  gust_scheme, constant_gust, use_tau,
(PID.TID 0000.0001) >#  do_molecular_diffusion
(PID.TID 0000.0001) >  do_mellor_yamada=.FALSE.,
(PID.TID 0000.0001) > /
(PID.TID 0000.0001) >
(PID.TID 0000.0001) > &diffusivity_nml
(PID.TID 0000.0001) >#  fixed_depth, depth_0, frac_inner,
(PID.TID 0000.0001) >#  rich_crit_pbl, entr_ratio, parcel_buoy,
(PID.TID 0000.0001) >#  znom, free_atm_diff, free_atm_skyhi_diff,
(PID.TID 0000.0001) >#  pbl_mcm, rich_crit_diff, mix_len, rich_prandtl,
(PID.TID 0000.0001) >#  background_m, background_t, ampns, ampns_max,
(PID.TID 0000.0001) >#  do_virtual_non_mcm
(PID.TID 0000.0001) > /
(PID.TID 0000.0001) >
(PID.TID 0000.0001) > &monin_obukhov_nml
(PID.TID 0000.0001) > /
(PID.TID 0000.0001) >
(PID.TID 0000.0001) > &my25_turb_nml
(PID.TID 0000.0001) > /
(PID.TID 0000.0001) >
(PID.TID 0000.0001) > &shallow_conv_nml
(PID.TID 0000.0001) > /
(PID.TID 0000.0001) >
(PID.TID 0000.0001) > &mixed_layer_nml
(PID.TID 0000.0001) ># evaporation, qflux_amp, depth, qflux_width
(PID.TID 0000.0001) >  depth=5000.,
(PID.TID 0000.0001) > /
(PID.TID 0000.0001) 
(PID.TID 0000.0001) ATM_PHYS_INIT_FIXED: finished reading data.atm_gray
(PID.TID 0000.0001) MIXED_LAYER_INIT: opening data.atm_gray
(PID.TID 0000.0001)  OPEN_COPY_DATA_FILE: opening file data.atm_gray
(PID.TID 0000.0001) // =======================================================
(PID.TID 0000.0001) // Parameter file "data.atm_gray"
(PID.TID 0000.0001) // =======================================================
(PID.TID 0000.0001) >
(PID.TID 0000.0001) > &atmosphere_nml
(PID.TID 0000.0001) >    turb = .TRUE.,
(PID.TID 0000.0001) >    ldry_convection = .false.,
(PID.TID 0000.0001) >    lwet_convection = .TRUE.,
(PID.TID 0000.0001) >    do_virtual = .false.,
(PID.TID 0000.0001) >    two_stream = .true.,
(PID.TID 0000.0001) >    mixed_layer_bc = .false.,
(PID.TID 0000.0001) >    roughness_heat = 0.05,
(PID.TID 0000.0001) >    roughness_moist = 0.05,
(PID.TID 0000.0001) >    roughness_mom = 0.05,
(PID.TID 0000.0001) > /
(PID.TID 0000.0001) >
(PID.TID 0000.0001) > &radiation_nml
(PID.TID 0000.0001) >  select_incSW  = 1,
(PID.TID 0000.0001) >  solar_constant= 1365.,
(PID.TID 0000.0001) ># yearLength=
(PID.TID 0000.0001) ># yearPhase =
(PID.TID 0000.0001) ># obliquity =
(PID.TID 0000.0001) >  del_sol=1.,
(PID.TID 0000.0001) ># ir_tau_eq=
(PID.TID 0000.0001) ># ir_tau_pole=
(PID.TID 0000.0001) ># atm_abs= 0.22,
(PID.TID 0000.0001) ># value that Ruth is using as default:
(PID.TID 0000.0001) ># atm_abs= 0.2486,
(PID.TID 0000.0001) ># sw_diff=
(PID.TID 0000.0001) ># linear_tau=
(PID.TID 0000.0001) ># del_sw=
(PID.TID 0000.0001) >  albedo_value=0.3,
(PID.TID 0000.0001) ># window=
(PID.TID 0000.0001) ># wv_exponent=
(PID.TID 0000.0001) ># solar_exponent=
(PID.TID 0000.0001) >  wv_exponent=0.,
(PID.TID 0000.0001) >  ir_tau_co2 = 0.8678,
(PID.TID 0000.0001) > /
(PID.TID 0000.0001) >
(PID.TID 0000.0001) > &lscale_cond_nml
(PID.TID 0000.0001) ># hc =
(PID.TID 0000.0001) ># do_evap=
(PID.TID 0000.0001) > /
(PID.TID 0000.0001) >
(PID.TID 0000.0001) > &dargan_bettsmiller_nml
(PID.TID 0000.0001) >#-- default:
(PID.TID 0000.0001) >#   tau_bm = 7200.,
(PID.TID 0000.0001) >#   rhbm   = 0.8,
(PID.TID 0000.0001) >#   do_virtual   = .FALSE.,
(PID.TID 0000.0001) >#   do_shallower = .FALSE.,
(PID.TID 0000.0001) >#   do_changeqref= .FALSE.,
(PID.TID 0000.0001) >#   do_envsat    = .FALSE.,
(PID.TID 0000.0001) >#   do_taucape   = .FALSE.,
(PID.TID 0000.0001) >#     capetaubm  = 900.,
(PID.TID 0000.0001) >#     tau_min    = 2400.,
(PID.TID 0000.0001) >#   do_bm_shift  = .FALSE.,
(PID.TID 0000.0001) >#-- POG choice:
(PID.TID 0000.0001) >#  rhbm = 0.7,
(PID.TID 0000.0001) >   do_virtual= .TRUE.,
(PID.TID 0000.0001) >   do_shallower= .TRUE.,
(PID.TID 0000.0001) > /
(PID.TID 0000.0001) >
(PID.TID 0000.0001) > &surface_flux_nml
(PID.TID 0000.0001) > /
(PID.TID 0000.0001) >
(PID.TID 0000.0001) > &vert_turb_driver_nml
(PID.TID 0000.0001) >#  do_shallow_conv, do_mellor_yamada,
(PID.TID 0000.0001) >#  gust_scheme, constant_gust, use_tau,
(PID.TID 0000.0001) >#  do_molecular_diffusion
(PID.TID 0000.0001) >  do_mellor_yamada=.FALSE.,
(PID.TID 0000.0001) > /
(PID.TID 0000.0001) >
(PID.TID 0000.0001) > &diffusivity_nml
(PID.TID 0000.0001) >#  fixed_depth, depth_0, frac_inner,
(PID.TID 0000.0001) >#  rich_crit_pbl, entr_ratio, parcel_buoy,
(PID.TID 0000.0001) >#  znom, free_atm_diff, free_atm_skyhi_diff,
(PID.TID 0000.0001) >#  pbl_mcm, rich_crit_diff, mix_len, rich_prandtl,
(PID.TID 0000.0001) >#  background_m, background_t, ampns, ampns_max,
(PID.TID 0000.0001) >#  do_virtual_non_mcm
(PID.TID 0000.0001) > /
(PID.TID 0000.0001) >
(PID.TID 0000.0001) > &monin_obukhov_nml
(PID.TID 0000.0001) > /
(PID.TID 0000.0001) >
(PID.TID 0000.0001) > &my25_turb_nml
(PID.TID 0000.0001) > /
(PID.TID 0000.0001) >
(PID.TID 0000.0001) > &shallow_conv_nml
(PID.TID 0000.0001) > /
(PID.TID 0000.0001) >
(PID.TID 0000.0001) > &mixed_layer_nml
(PID.TID 0000.0001) ># evaporation, qflux_amp, depth, qflux_width
(PID.TID 0000.0001) >  depth=5000.,
(PID.TID 0000.0001) > /
(PID.TID 0000.0001) 
(PID.TID 0000.0001) MIXED_LAYER_INIT: finished reading data.atm_gray
(PID.TID 0000.0001) LSCALE_COND_INIT: opening data.atm_gray
(PID.TID 0000.0001)  OPEN_COPY_DATA_FILE: opening file data.atm_gray
(PID.TID 0000.0001) // =======================================================
(PID.TID 0000.0001) // Parameter file "data.atm_gray"
(PID.TID 0000.0001) // =======================================================
(PID.TID 0000.0001) >
(PID.TID 0000.0001) > &atmosphere_nml
(PID.TID 0000.0001) >    turb = .TRUE.,
(PID.TID 0000.0001) >    ldry_convection = .false.,
(PID.TID 0000.0001) >    lwet_convection = .TRUE.,
(PID.TID 0000.0001) >    do_virtual = .false.,
(PID.TID 0000.0001) >    two_stream = .true.,
(PID.TID 0000.0001) >    mixed_layer_bc = .false.,
(PID.TID 0000.0001) >    roughness_heat = 0.05,
(PID.TID 0000.0001) >    roughness_moist = 0.05,
(PID.TID 0000.0001) >    roughness_mom = 0.05,
(PID.TID 0000.0001) > /
(PID.TID 0000.0001) >
(PID.TID 0000.0001) > &radiation_nml
(PID.TID 0000.0001) >  select_incSW  = 1,
(PID.TID 0000.0001) >  solar_constant= 1365.,
(PID.TID 0000.0001) ># yearLength=
(PID.TID 0000.0001) ># yearPhase =
(PID.TID 0000.0001) ># obliquity =
(PID.TID 0000.0001) >  del_sol=1.,
(PID.TID 0000.0001) ># ir_tau_eq=
(PID.TID 0000.0001) ># ir_tau_pole=
(PID.TID 0000.0001) ># atm_abs= 0.22,
(PID.TID 0000.0001) ># value that Ruth is using as default:
(PID.TID 0000.0001) ># atm_abs= 0.2486,
(PID.TID 0000.0001) ># sw_diff=
(PID.TID 0000.0001) ># linear_tau=
(PID.TID 0000.0001) ># del_sw=
(PID.TID 0000.0001) >  albedo_value=0.3,
(PID.TID 0000.0001) ># window=
(PID.TID 0000.0001) ># wv_exponent=
(PID.TID 0000.0001) ># solar_exponent=
(PID.TID 0000.0001) >  wv_exponent=0.,
(PID.TID 0000.0001) >  ir_tau_co2 = 0.8678,
(PID.TID 0000.0001) > /
(PID.TID 0000.0001) >
(PID.TID 0000.0001) > &lscale_cond_nml
(PID.TID 0000.0001) ># hc =
(PID.TID 0000.0001) ># do_evap=
(PID.TID 0000.0001) > /
(PID.TID 0000.0001) >
(PID.TID 0000.0001) > &dargan_bettsmiller_nml
(PID.TID 0000.0001) >#-- default:
(PID.TID 0000.0001) >#   tau_bm = 7200.,
(PID.TID 0000.0001) >#   rhbm   = 0.8,
(PID.TID 0000.0001) >#   do_virtual   = .FALSE.,
(PID.TID 0000.0001) >#   do_shallower = .FALSE.,
(PID.TID 0000.0001) >#   do_changeqref= .FALSE.,
(PID.TID 0000.0001) >#   do_envsat    = .FALSE.,
(PID.TID 0000.0001) >#   do_taucape   = .FALSE.,
(PID.TID 0000.0001) >#     capetaubm  = 900.,
(PID.TID 0000.0001) >#     tau_min    = 2400.,
(PID.TID 0000.0001) >#   do_bm_shift  = .FALSE.,
(PID.TID 0000.0001) >#-- POG choice:
(PID.TID 0000.0001) >#  rhbm = 0.7,
(PID.TID 0000.0001) >   do_virtual= .TRUE.,
(PID.TID 0000.0001) >   do_shallower= .TRUE.,
(PID.TID 0000.0001) > /
(PID.TID 0000.0001) >
(PID.TID 0000.0001) > &surface_flux_nml
(PID.TID 0000.0001) > /
(PID.TID 0000.0001) >
(PID.TID 0000.0001) > &vert_turb_driver_nml
(PID.TID 0000.0001) >#  do_shallow_conv, do_mellor_yamada,
(PID.TID 0000.0001) >#  gust_scheme, constant_gust, use_tau,
(PID.TID 0000.0001) >#  do_molecular_diffusion
(PID.TID 0000.0001) >  do_mellor_yamada=.FALSE.,
(PID.TID 0000.0001) > /
(PID.TID 0000.0001) >
(PID.TID 0000.0001) > &diffusivity_nml
(PID.TID 0000.0001) >#  fixed_depth, depth_0, frac_inner,
(PID.TID 0000.0001) >#  rich_crit_pbl, entr_ratio, parcel_buoy,
(PID.TID 0000.0001) >#  znom, free_atm_diff, free_atm_skyhi_diff,
(PID.TID 0000.0001) >#  pbl_mcm, rich_crit_diff, mix_len, rich_prandtl,
(PID.TID 0000.0001) >#  background_m, background_t, ampns, ampns_max,
(PID.TID 0000.0001) >#  do_virtual_non_mcm
(PID.TID 0000.0001) > /
(PID.TID 0000.0001) >
(PID.TID 0000.0001) > &monin_obukhov_nml
(PID.TID 0000.0001) > /
(PID.TID 0000.0001) >
(PID.TID 0000.0001) > &my25_turb_nml
(PID.TID 0000.0001) > /
(PID.TID 0000.0001) >
(PID.TID 0000.0001) > &shallow_conv_nml
(PID.TID 0000.0001) > /
(PID.TID 0000.0001) >
(PID.TID 0000.0001) > &mixed_layer_nml
(PID.TID 0000.0001) ># evaporation, qflux_amp, depth, qflux_width
(PID.TID 0000.0001) >  depth=5000.,
(PID.TID 0000.0001) > /
(PID.TID 0000.0001) 
(PID.TID 0000.0001) LSCALE_COND_INIT: finished reading data.atm_gray
(PID.TID 0000.0001) DARGAN_BETTSMILLER_init: opening data.atm_gray
(PID.TID 0000.0001)  OPEN_COPY_DATA_FILE: opening file data.atm_gray
(PID.TID 0000.0001) // =======================================================
(PID.TID 0000.0001) // Parameter file "data.atm_gray"
(PID.TID 0000.0001) // =======================================================
(PID.TID 0000.0001) >
(PID.TID 0000.0001) > &atmosphere_nml
(PID.TID 0000.0001) >    turb = .TRUE.,
(PID.TID 0000.0001) >    ldry_convection = .false.,
(PID.TID 0000.0001) >    lwet_convection = .TRUE.,
(PID.TID 0000.0001) >    do_virtual = .false.,
(PID.TID 0000.0001) >    two_stream = .true.,
(PID.TID 0000.0001) >    mixed_layer_bc = .false.,
(PID.TID 0000.0001) >    roughness_heat = 0.05,
(PID.TID 0000.0001) >    roughness_moist = 0.05,
(PID.TID 0000.0001) >    roughness_mom = 0.05,
(PID.TID 0000.0001) > /
(PID.TID 0000.0001) >
(PID.TID 0000.0001) > &radiation_nml
(PID.TID 0000.0001) >  select_incSW  = 1,
(PID.TID 0000.0001) >  solar_constant= 1365.,
(PID.TID 0000.0001) ># yearLength=
(PID.TID 0000.0001) ># yearPhase =
(PID.TID 0000.0001) ># obliquity =
(PID.TID 0000.0001) >  del_sol=1.,
(PID.TID 0000.0001) ># ir_tau_eq=
(PID.TID 0000.0001) ># ir_tau_pole=
(PID.TID 0000.0001) ># atm_abs= 0.22,
(PID.TID 0000.0001) ># value that Ruth is using as default:
(PID.TID 0000.0001) ># atm_abs= 0.2486,
(PID.TID 0000.0001) ># sw_diff=
(PID.TID 0000.0001) ># linear_tau=
(PID.TID 0000.0001) ># del_sw=
(PID.TID 0000.0001) >  albedo_value=0.3,
(PID.TID 0000.0001) ># window=
(PID.TID 0000.0001) ># wv_exponent=
(PID.TID 0000.0001) ># solar_exponent=
(PID.TID 0000.0001) >  wv_exponent=0.,
(PID.TID 0000.0001) >  ir_tau_co2 = 0.8678,
(PID.TID 0000.0001) > /
(PID.TID 0000.0001) >
(PID.TID 0000.0001) > &lscale_cond_nml
(PID.TID 0000.0001) ># hc =
(PID.TID 0000.0001) ># do_evap=
(PID.TID 0000.0001) > /
(PID.TID 0000.0001) >
(PID.TID 0000.0001) > &dargan_bettsmiller_nml
(PID.TID 0000.0001) >#-- default:
(PID.TID 0000.0001) >#   tau_bm = 7200.,
(PID.TID 0000.0001) >#   rhbm   = 0.8,
(PID.TID 0000.0001) >#   do_virtual   = .FALSE.,
(PID.TID 0000.0001) >#   do_shallower = .FALSE.,
(PID.TID 0000.0001) >#   do_changeqref= .FALSE.,
(PID.TID 0000.0001) >#   do_envsat    = .FALSE.,
(PID.TID 0000.0001) >#   do_taucape   = .FALSE.,
(PID.TID 0000.0001) >#     capetaubm  = 900.,
(PID.TID 0000.0001) >#     tau_min    = 2400.,
(PID.TID 0000.0001) >#   do_bm_shift  = .FALSE.,
(PID.TID 0000.0001) >#-- POG choice:
(PID.TID 0000.0001) >#  rhbm = 0.7,
(PID.TID 0000.0001) >   do_virtual= .TRUE.,
(PID.TID 0000.0001) >   do_shallower= .TRUE.,
(PID.TID 0000.0001) > /
(PID.TID 0000.0001) >
(PID.TID 0000.0001) > &surface_flux_nml
(PID.TID 0000.0001) > /
(PID.TID 0000.0001) >
(PID.TID 0000.0001) > &vert_turb_driver_nml
(PID.TID 0000.0001) >#  do_shallow_conv, do_mellor_yamada,
(PID.TID 0000.0001) >#  gust_scheme, constant_gust, use_tau,
(PID.TID 0000.0001) >#  do_molecular_diffusion
(PID.TID 0000.0001) >  do_mellor_yamada=.FALSE.,
(PID.TID 0000.0001) > /
(PID.TID 0000.0001) >
(PID.TID 0000.0001) > &diffusivity_nml
(PID.TID 0000.0001) >#  fixed_depth, depth_0, frac_inner,
(PID.TID 0000.0001) >#  rich_crit_pbl, entr_ratio, parcel_buoy,
(PID.TID 0000.0001) >#  znom, free_atm_diff, free_atm_skyhi_diff,
(PID.TID 0000.0001) >#  pbl_mcm, rich_crit_diff, mix_len, rich_prandtl,
(PID.TID 0000.0001) >#  background_m, background_t, ampns, ampns_max,
(PID.TID 0000.0001) >#  do_virtual_non_mcm
(PID.TID 0000.0001) > /
(PID.TID 0000.0001) >
(PID.TID 0000.0001) > &monin_obukhov_nml
(PID.TID 0000.0001) > /
(PID.TID 0000.0001) >
(PID.TID 0000.0001) > &my25_turb_nml
(PID.TID 0000.0001) > /
(PID.TID 0000.0001) >
(PID.TID 0000.0001) > &shallow_conv_nml
(PID.TID 0000.0001) > /
(PID.TID 0000.0001) >
(PID.TID 0000.0001) > &mixed_layer_nml
(PID.TID 0000.0001) ># evaporation, qflux_amp, depth, qflux_width
(PID.TID 0000.0001) >  depth=5000.,
(PID.TID 0000.0001) > /
(PID.TID 0000.0001) 
(PID.TID 0000.0001) DARGAB_BETTSMILLER_INIT: finished reading data.atm_gray
(PID.TID 0000.0001) RADIATION_INIT: opening data.atm_gray
(PID.TID 0000.0001)  OPEN_COPY_DATA_FILE: opening file data.atm_gray
(PID.TID 0000.0001) // =======================================================
(PID.TID 0000.0001) // Parameter file "data.atm_gray"
(PID.TID 0000.0001) // =======================================================
(PID.TID 0000.0001) >
(PID.TID 0000.0001) > &atmosphere_nml
(PID.TID 0000.0001) >    turb = .TRUE.,
(PID.TID 0000.0001) >    ldry_convection = .false.,
(PID.TID 0000.0001) >    lwet_convection = .TRUE.,
(PID.TID 0000.0001) >    do_virtual = .false.,
(PID.TID 0000.0001) >    two_stream = .true.,
(PID.TID 0000.0001) >    mixed_layer_bc = .false.,
(PID.TID 0000.0001) >    roughness_heat = 0.05,
(PID.TID 0000.0001) >    roughness_moist = 0.05,
(PID.TID 0000.0001) >    roughness_mom = 0.05,
(PID.TID 0000.0001) > /
(PID.TID 0000.0001) >
(PID.TID 0000.0001) > &radiation_nml
(PID.TID 0000.0001) >  select_incSW  = 1,
(PID.TID 0000.0001) >  solar_constant= 1365.,
(PID.TID 0000.0001) ># yearLength=
(PID.TID 0000.0001) ># yearPhase =
(PID.TID 0000.0001) ># obliquity =
(PID.TID 0000.0001) >  del_sol=1.,
(PID.TID 0000.0001) ># ir_tau_eq=
(PID.TID 0000.0001) ># ir_tau_pole=
(PID.TID 0000.0001) ># atm_abs= 0.22,
(PID.TID 0000.0001) ># value that Ruth is using as default:
(PID.TID 0000.0001) ># atm_abs= 0.2486,
(PID.TID 0000.0001) ># sw_diff=
(PID.TID 0000.0001) ># linear_tau=
(PID.TID 0000.0001) ># del_sw=
(PID.TID 0000.0001) >  albedo_value=0.3,
(PID.TID 0000.0001) ># window=
(PID.TID 0000.0001) ># wv_exponent=
(PID.TID 0000.0001) ># solar_exponent=
(PID.TID 0000.0001) >  wv_exponent=0.,
(PID.TID 0000.0001) >  ir_tau_co2 = 0.8678,
(PID.TID 0000.0001) > /
(PID.TID 0000.0001) >
(PID.TID 0000.0001) > &lscale_cond_nml
(PID.TID 0000.0001) ># hc =
(PID.TID 0000.0001) ># do_evap=
(PID.TID 0000.0001) > /
(PID.TID 0000.0001) >
(PID.TID 0000.0001) > &dargan_bettsmiller_nml
(PID.TID 0000.0001) >#-- default:
(PID.TID 0000.0001) >#   tau_bm = 7200.,
(PID.TID 0000.0001) >#   rhbm   = 0.8,
(PID.TID 0000.0001) >#   do_virtual   = .FALSE.,
(PID.TID 0000.0001) >#   do_shallower = .FALSE.,
(PID.TID 0000.0001) >#   do_changeqref= .FALSE.,
(PID.TID 0000.0001) >#   do_envsat    = .FALSE.,
(PID.TID 0000.0001) >#   do_taucape   = .FALSE.,
(PID.TID 0000.0001) >#     capetaubm  = 900.,
(PID.TID 0000.0001) >#     tau_min    = 2400.,
(PID.TID 0000.0001) >#   do_bm_shift  = .FALSE.,
(PID.TID 0000.0001) >#-- POG choice:
(PID.TID 0000.0001) >#  rhbm = 0.7,
(PID.TID 0000.0001) >   do_virtual= .TRUE.,
(PID.TID 0000.0001) >   do_shallower= .TRUE.,
(PID.TID 0000.0001) > /
(PID.TID 0000.0001) >
(PID.TID 0000.0001) > &surface_flux_nml
(PID.TID 0000.0001) > /
(PID.TID 0000.0001) >
(PID.TID 0000.0001) > &vert_turb_driver_nml
(PID.TID 0000.0001) >#  do_shallow_conv, do_mellor_yamada,
(PID.TID 0000.0001) >#  gust_scheme, constant_gust, use_tau,
(PID.TID 0000.0001) >#  do_molecular_diffusion
(PID.TID 0000.0001) >  do_mellor_yamada=.FALSE.,
(PID.TID 0000.0001) > /
(PID.TID 0000.0001) >
(PID.TID 0000.0001) > &diffusivity_nml
(PID.TID 0000.0001) >#  fixed_depth, depth_0, frac_inner,
(PID.TID 0000.0001) >#  rich_crit_pbl, entr_ratio, parcel_buoy,
(PID.TID 0000.0001) >#  znom, free_atm_diff, free_atm_skyhi_diff,
(PID.TID 0000.0001) >#  pbl_mcm, rich_crit_diff, mix_len, rich_prandtl,
(PID.TID 0000.0001) >#  background_m, background_t, ampns, ampns_max,
(PID.TID 0000.0001) >#  do_virtual_non_mcm
(PID.TID 0000.0001) > /
(PID.TID 0000.0001) >
(PID.TID 0000.0001) > &monin_obukhov_nml
(PID.TID 0000.0001) > /
(PID.TID 0000.0001) >
(PID.TID 0000.0001) > &my25_turb_nml
(PID.TID 0000.0001) > /
(PID.TID 0000.0001) >
(PID.TID 0000.0001) > &shallow_conv_nml
(PID.TID 0000.0001) > /
(PID.TID 0000.0001) >
(PID.TID 0000.0001) > &mixed_layer_nml
(PID.TID 0000.0001) ># evaporation, qflux_amp, depth, qflux_width
(PID.TID 0000.0001) >  depth=5000.,
(PID.TID 0000.0001) > /
(PID.TID 0000.0001) 
(PID.TID 0000.0001) RADIATION_INIT: finished reading data.atm_gray
(PID.TID 0000.0001) VERT_TURB_DRIVER_INIT: opening data.atm_gray
(PID.TID 0000.0001)  OPEN_COPY_DATA_FILE: opening file data.atm_gray
(PID.TID 0000.0001) // =======================================================
(PID.TID 0000.0001) // Parameter file "data.atm_gray"
(PID.TID 0000.0001) // =======================================================
(PID.TID 0000.0001) >
(PID.TID 0000.0001) > &atmosphere_nml
(PID.TID 0000.0001) >    turb = .TRUE.,
(PID.TID 0000.0001) >    ldry_convection = .false.,
(PID.TID 0000.0001) >    lwet_convection = .TRUE.,
(PID.TID 0000.0001) >    do_virtual = .false.,
(PID.TID 0000.0001) >    two_stream = .true.,
(PID.TID 0000.0001) >    mixed_layer_bc = .false.,
(PID.TID 0000.0001) >    roughness_heat = 0.05,
(PID.TID 0000.0001) >    roughness_moist = 0.05,
(PID.TID 0000.0001) >    roughness_mom = 0.05,
(PID.TID 0000.0001) > /
(PID.TID 0000.0001) >
(PID.TID 0000.0001) > &radiation_nml
(PID.TID 0000.0001) >  select_incSW  = 1,
(PID.TID 0000.0001) >  solar_constant= 1365.,
(PID.TID 0000.0001) ># yearLength=
(PID.TID 0000.0001) ># yearPhase =
(PID.TID 0000.0001) ># obliquity =
(PID.TID 0000.0001) >  del_sol=1.,
(PID.TID 0000.0001) ># ir_tau_eq=
(PID.TID 0000.0001) ># ir_tau_pole=
(PID.TID 0000.0001) ># atm_abs= 0.22,
(PID.TID 0000.0001) ># value that Ruth is using as default:
(PID.TID 0000.0001) ># atm_abs= 0.2486,
(PID.TID 0000.0001) ># sw_diff=
(PID.TID 0000.0001) ># linear_tau=
(PID.TID 0000.0001) ># del_sw=
(PID.TID 0000.0001) >  albedo_value=0.3,
(PID.TID 0000.0001) ># window=
(PID.TID 0000.0001) ># wv_exponent=
(PID.TID 0000.0001) ># solar_exponent=
(PID.TID 0000.0001) >  wv_exponent=0.,
(PID.TID 0000.0001) >  ir_tau_co2 = 0.8678,
(PID.TID 0000.0001) > /
(PID.TID 0000.0001) >
(PID.TID 0000.0001) > &lscale_cond_nml
(PID.TID 0000.0001) ># hc =
(PID.TID 0000.0001) ># do_evap=
(PID.TID 0000.0001) > /
(PID.TID 0000.0001) >
(PID.TID 0000.0001) > &dargan_bettsmiller_nml
(PID.TID 0000.0001) >#-- default:
(PID.TID 0000.0001) >#   tau_bm = 7200.,
(PID.TID 0000.0001) >#   rhbm   = 0.8,
(PID.TID 0000.0001) >#   do_virtual   = .FALSE.,
(PID.TID 0000.0001) >#   do_shallower = .FALSE.,
(PID.TID 0000.0001) >#   do_changeqref= .FALSE.,
(PID.TID 0000.0001) >#   do_envsat    = .FALSE.,
(PID.TID 0000.0001) >#   do_taucape   = .FALSE.,
(PID.TID 0000.0001) >#     capetaubm  = 900.,
(PID.TID 0000.0001) >#     tau_min    = 2400.,
(PID.TID 0000.0001) >#   do_bm_shift  = .FALSE.,
(PID.TID 0000.0001) >#-- POG choice:
(PID.TID 0000.0001) >#  rhbm = 0.7,
(PID.TID 0000.0001) >   do_virtual= .TRUE.,
(PID.TID 0000.0001) >   do_shallower= .TRUE.,
(PID.TID 0000.0001) > /
(PID.TID 0000.0001) >
(PID.TID 0000.0001) > &surface_flux_nml
(PID.TID 0000.0001) > /
(PID.TID 0000.0001) >
(PID.TID 0000.0001) > &vert_turb_driver_nml
(PID.TID 0000.0001) >#  do_shallow_conv, do_mellor_yamada,
(PID.TID 0000.0001) >#  gust_scheme, constant_gust, use_tau,
(PID.TID 0000.0001) >#  do_molecular_diffusion
(PID.TID 0000.0001) >  do_mellor_yamada=.FALSE.,
(PID.TID 0000.0001) > /
(PID.TID 0000.0001) >
(PID.TID 0000.0001) > &diffusivity_nml
(PID.TID 0000.0001) >#  fixed_depth, depth_0, frac_inner,
(PID.TID 0000.0001) >#  rich_crit_pbl, entr_ratio, parcel_buoy,
(PID.TID 0000.0001) >#  znom, free_atm_diff, free_atm_skyhi_diff,
(PID.TID 0000.0001) >#  pbl_mcm, rich_crit_diff, mix_len, rich_prandtl,
(PID.TID 0000.0001) >#  background_m, background_t, ampns, ampns_max,
(PID.TID 0000.0001) >#  do_virtual_non_mcm
(PID.TID 0000.0001) > /
(PID.TID 0000.0001) >
(PID.TID 0000.0001) > &monin_obukhov_nml
(PID.TID 0000.0001) > /
(PID.TID 0000.0001) >
(PID.TID 0000.0001) > &my25_turb_nml
(PID.TID 0000.0001) > /
(PID.TID 0000.0001) >
(PID.TID 0000.0001) > &shallow_conv_nml
(PID.TID 0000.0001) > /
(PID.TID 0000.0001) >
(PID.TID 0000.0001) > &mixed_layer_nml
(PID.TID 0000.0001) ># evaporation, qflux_amp, depth, qflux_width
(PID.TID 0000.0001) >  depth=5000.,
(PID.TID 0000.0001) > /
(PID.TID 0000.0001) 
(PID.TID 0000.0001) VERT_TURB_DRIVER_INIT: finished reading data.atm_gray
(PID.TID 0000.0001)  MDS_READ_FIELD: opening global file: MixedLayerDepth.bin
(PID.TID 0000.0001)  MDS_READ_FIELD: opening global file: Albedo.bin
(PID.TID 0000.0001) ------------------------------------------------------------
(PID.TID 0000.0001) DIAGNOSTICS_SET_LEVELS: done
(PID.TID 0000.0001)  Total Nb of available Diagnostics: ndiagt=   239
(PID.TID 0000.0001)  write list of available Diagnostics to file: available_diagnostics.log
(PID.TID 0000.0001) SETDIAG: Allocate  1 x  1 Levels for Diagnostic #    23 ETAN
(PID.TID 0000.0001) SETDIAG: Allocate  1 x  1 Levels for Diagnostic #    24 ETANSQ
(PID.TID 0000.0001) SETDIAG: Allocate  1 x  1 Levels for Diagnostic #   205 AtPhCnvP
(PID.TID 0000.0001) SETDIAG: Allocate  1 x  1 Levels for Diagnostic #    91 TFLUX
(PID.TID 0000.0001) SETDIAG: Allocate  1 x  1 Levels for Diagnostic #   206 AtPhLscP
(PID.TID 0000.0001) SETDIAG: Allocate  1 x  1 Levels for Diagnostic #   220 AtPhSens
(PID.TID 0000.0001) SETDIAG: Allocate  1 x  1 Levels for Diagnostic #   221 AtPhEvap
(PID.TID 0000.0001) SETDIAG: Allocate  1 x  1 Levels for Diagnostic #   222 AtPhTauX
(PID.TID 0000.0001) SETDIAG: Allocate  1 x  1 Levels for Diagnostic #   223 AtPhTauY
(PID.TID 0000.0001) SETDIAG: Allocate  1 x  1 Levels for Diagnostic #   198 AtPh_SST
(PID.TID 0000.0001) SETDIAG: Allocate  1 x  1 Levels for Diagnostic #   213 AtPhInSR
(PID.TID 0000.0001) SETDIAG: Allocate  1 x  1 Levels for Diagnostic #   215 AtPhOLR
(PID.TID 0000.0001) SETDIAG: Allocate  1 x  1 Levels for Diagnostic #   217 AtPhNSSR
(PID.TID 0000.0001) SETDIAG: Allocate  1 x  1 Levels for Diagnostic #   218 AtPhDSLR
(PID.TID 0000.0001) SETDIAG: Allocate  1 x  1 Levels for Diagnostic #   219 AtPhUSLR
(PID.TID 0000.0001) SETDIAG: Allocate  1 x  1 Levels for Diagnostic #   214 AtPhNTSR
(PID.TID 0000.0001) SETDIAG: Allocate 26 x  1 Levels for Diagnostic #    29 UVEL
(PID.TID 0000.0001) SETDIAG: Allocate 26 x  1 Levels for Diagnostic #    30 VVEL
(PID.TID 0000.0001) SETDIAG: Allocate 26 x  1 Levels for Diagnostic #    31 WVEL
(PID.TID 0000.0001) SETDIAG: Allocate 26 x  1 Levels for Diagnostic #    26 THETA
(PID.TID 0000.0001) SETDIAG: Allocate 26 x  1 Levels for Diagnostic #    27 SALT
(PID.TID 0000.0001) SETDIAG: Allocate 26 x  1 Levels for Diagnostic #    43 UVELMASS
(PID.TID 0000.0001) SETDIAG: Allocate 26 x  1 Levels for Diagnostic #    44 VVELMASS
(PID.TID 0000.0001) SETDIAG: Allocate 26 x  1 Levels for Diagnostic #    45 WVELMASS
(PID.TID 0000.0001) SETDIAG: Allocate 26 x  1 Levels for Diagnostic #    34 UVELSQ
(PID.TID 0000.0001) SETDIAG: Allocate 26 x  1 Levels for Diagnostic #    35 VVELSQ
(PID.TID 0000.0001) SETDIAG: Allocate 26 x  1 Levels for Diagnostic #    36 WVELSQ
(PID.TID 0000.0001) SETDIAG: Allocate 26 x  1 Levels for Diagnostic #    32 THETASQ
(PID.TID 0000.0001) SETDIAG: Allocate 26 x  1 Levels for Diagnostic #    33 SALTSQ
(PID.TID 0000.0001) SETDIAG: Allocate 26 x  1 Levels for Diagnostic #    48 UTHMASS
(PID.TID 0000.0001) SETDIAG: Allocate 26 x  1 Levels for Diagnostic #    49 VTHMASS
(PID.TID 0000.0001) SETDIAG: Allocate 26 x  1 Levels for Diagnostic #    50 WTHMASS
(PID.TID 0000.0001) SETDIAG: Allocate 26 x  1 Levels for Diagnostic #    51 USLTMASS
(PID.TID 0000.0001) SETDIAG: Allocate 26 x  1 Levels for Diagnostic #    52 VSLTMASS
(PID.TID 0000.0001) SETDIAG: Allocate 26 x  1 Levels for Diagnostic #    53 WSLTMASS
(PID.TID 0000.0001) SETDIAG: Diag #    47 PsiVEL   processed from Diag #    43 UVELMASS
(PID.TID 0000.0001) - NOTE - SETDIAG:  Diagnostic  #    43 UVELMASS is already set
(PID.TID 0000.0001) - NOTE - SETDIAG:  Vector-mate #    44 VVELMASS is already set
(PID.TID 0000.0001) SETDIAG: Allocate 26 x  1 Levels for Diagnostic #    60 UVELPHI
(PID.TID 0000.0001) SETDIAG: Allocate 26 x  1 Levels for Diagnostic #    61 VVELPHI
(PID.TID 0000.0001) SETDIAG: Allocate 26 x  1 Levels for Diagnostic #    69 PHIHYD
(PID.TID 0000.0001) SETDIAG: Allocate 26 x  1 Levels for Diagnostic #   199 AtPhdTdt
(PID.TID 0000.0001) SETDIAG: Allocate 26 x  1 Levels for Diagnostic #   200 AtPhdQdt
(PID.TID 0000.0001) SETDIAG: Allocate 26 x  1 Levels for Diagnostic #   201 AtPhdUdt
(PID.TID 0000.0001) SETDIAG: Allocate 26 x  1 Levels for Diagnostic #   202 AtPhdVdt
(PID.TID 0000.0001) SETDIAG: Allocate 26 x  1 Levels for Diagnostic #   103 HeatDiss
(PID.TID 0000.0001)   space allocated for all diagnostics:     718 levels
(PID.TID 0000.0001)   set mate pointer for diag #   222  AtPhTauX , Parms: UM      L1 , mate:   223
(PID.TID 0000.0001)   set mate pointer for diag #   223  AtPhTauY , Parms: VM      L1 , mate:   222
(PID.TID 0000.0001)   set mate pointer for diag #    29  UVEL     , Parms: UUR     MR , mate:    30
(PID.TID 0000.0001)   set mate pointer for diag #    30  VVEL     , Parms: VVR     MR , mate:    29
(PID.TID 0000.0001)   set mate pointer for diag #    43  UVELMASS , Parms: UUr     MR , mate:    44
(PID.TID 0000.0001)   set mate pointer for diag #    44  VVELMASS , Parms: VVr     MR , mate:    43
(PID.TID 0000.0001)   set mate pointer for diag #    34  UVELSQ   , Parms: UURP    MR , mate:    35
(PID.TID 0000.0001)   set mate pointer for diag #    35  VVELSQ   , Parms: VVRP    MR , mate:    34
(PID.TID 0000.0001)   set mate pointer for diag #    48  UTHMASS  , Parms: UUr     MR , mate:    49
(PID.TID 0000.0001)   set mate pointer for diag #    49  VTHMASS  , Parms: VVr     MR , mate:    48
(PID.TID 0000.0001)   set mate pointer for diag #    51  USLTMASS , Parms: UUr     MR , mate:    52
(PID.TID 0000.0001)   set mate pointer for diag #    52  VSLTMASS , Parms: VVr     MR , mate:    51
(PID.TID 0000.0001)   set mate pointer for diag #    60  UVELPHI  , Parms: UUr     MR , mate:    61
(PID.TID 0000.0001)   set mate pointer for diag #    61  VVELPHI  , Parms: VVr     MR , mate:    60
(PID.TID 0000.0001)   set mate pointer for diag #   201  AtPhdUdt , Parms: UMR     MR , mate:   202
(PID.TID 0000.0001)   set mate pointer for diag #   202  AtPhdVdt , Parms: VMR     MR , mate:   201
(PID.TID 0000.0001) DIAGNOSTICS_SET_POINTERS: Set levels for Outp.Stream: Surface
(PID.TID 0000.0001)  Levels:       1.
(PID.TID 0000.0001) DIAGNOSTICS_SET_POINTERS: Set levels for Outp.Stream: Fields
(PID.TID 0000.0001)  Levels:       1.   2.   3.   4.   5.   6.   7.   8.   9.  10.  11.  12.  13.  14.  15.  16.  17.  18.  19.  20.
(PID.TID 0000.0001)  Levels:      21.  22.  23.  24.  25.  26.
(PID.TID 0000.0001) DIAGNOSTICS_SET_POINTERS: done
(PID.TID 0000.0001) ------------------------------------------------------------
(PID.TID 0000.0001) DIAGSTATS_SET_REGIONS: define no region
(PID.TID 0000.0001) ------------------------------------------------------------
(PID.TID 0000.0001) SETDIAG: Allocate  1 Levels for Stats-Diag #    23 ETAN
(PID.TID 0000.0001) SETDIAG: Allocate 26 Levels for Stats-Diag #    26 THETA
(PID.TID 0000.0001) SETDIAG: Allocate 26 Levels for Stats-Diag #    27 SALT
(PID.TID 0000.0001) SETDIAG: Allocate 26 Levels for Stats-Diag #    28 RELHUM
(PID.TID 0000.0001) SETDIAG: Allocate 26 Levels for Stats-Diag #    37 UE_VEL_C
(PID.TID 0000.0001) SETDIAG: Allocate 26 Levels for Stats-Diag #    38 VN_VEL_C
(PID.TID 0000.0001) SETDIAG: Allocate 26 Levels for Stats-Diag #    31 WVEL
(PID.TID 0000.0001) SETDIAG: Allocate 26 Levels for Stats-Diag #   199 AtPhdTdt
(PID.TID 0000.0001) SETDIAG: Allocate 26 Levels for Stats-Diag #   200 AtPhdQdt
(PID.TID 0000.0001) SETDIAG: Allocate 26 Levels for Stats-Diag #   201 AtPhdUdt
(PID.TID 0000.0001) SETDIAG: Allocate 26 Levels for Stats-Diag #   202 AtPhdVdt
(PID.TID 0000.0001) SETDIAG: Allocate 26 Levels for Stats-Diag #   203 AtPhDifT
(PID.TID 0000.0001) SETDIAG: Allocate 26 Levels for Stats-Diag #   204 AtPhDifM
(PID.TID 0000.0001) SETDIAG: Allocate 26 Levels for Stats-Diag #   235 AtPhDisH
(PID.TID 0000.0001) SETDIAG: Allocate 26 Levels for Stats-Diag #   233 AtPhdtTg
(PID.TID 0000.0001) SETDIAG: Allocate 26 Levels for Stats-Diag #   234 AtPhdtQg
(PID.TID 0000.0001) SETDIAG: Allocate 26 Levels for Stats-Diag #   197 SHAP_dKE
(PID.TID 0000.0001) SETDIAG: Allocate 26 Levels for Stats-Diag #   102 MoistCor
(PID.TID 0000.0001)   space allocated for all stats-diags:     443 levels
(PID.TID 0000.0001) DIAGSTATS_SET_POINTERS: done
(PID.TID 0000.0001) ------------------------------------------------------------
(PID.TID 0000.0001) INI_GLOBAL_DOMAIN: Found  24 CS-corner Pts in the domain
(PID.TID 0000.0001) %MON fCori_max                    =   1.4574827780704E-04
(PID.TID 0000.0001) %MON fCori_min                    =  -1.4574827780704E-04
(PID.TID 0000.0001) %MON fCori_mean                   =   0.0000000000000E+00
(PID.TID 0000.0001) %MON fCori_sd                     =   8.4202189509968E-05
(PID.TID 0000.0001) %MON fCoriG_max                   =   1.4584247033981E-04
(PID.TID 0000.0001) %MON fCoriG_min                   =  -1.4584247033981E-04
(PID.TID 0000.0001) %MON fCoriG_mean                  =   2.2587545260115E-21
(PID.TID 0000.0001) %MON fCoriG_sd                    =   8.4202189509968E-05
(PID.TID 0000.0001) %MON fCoriCos_max                 =   1.4580166994612E-04
(PID.TID 0000.0001) %MON fCoriCos_min                 =   5.2407700865903E-06
(PID.TID 0000.0001) %MON fCoriCos_mean                =   1.1514045869113E-04
(PID.TID 0000.0001) %MON fCoriCos_sd                  =   3.0375849106513E-05
(PID.TID 0000.0001) INI_CG2D: CG2D normalisation factor =  9.9119603843467461E-06
(PID.TID 0000.0001) INI_CG2D: cg2dTolerance = 1.403820515321401E-10 (Area=5.0986421043E+14)
(PID.TID 0000.0001) 
(PID.TID 0000.0001) // =======================================================
(PID.TID 0000.0001) // Model configuration
(PID.TID 0000.0001) // =======================================================
(PID.TID 0000.0001) //
(PID.TID 0000.0001) // "Physical" paramters ( PARM01 in namelist )
(PID.TID 0000.0001) //
(PID.TID 0000.0001) buoyancyRelation = /* Type of relation to get Buoyancy */
(PID.TID 0000.0001)               'ATMOSPHERIC'
(PID.TID 0000.0001)     ;
(PID.TID 0000.0001) fluidIsAir   =  /* fluid major constituent is Air */
(PID.TID 0000.0001)                   T
(PID.TID 0000.0001)     ;
(PID.TID 0000.0001) fluidIsWater =  /* fluid major constituent is Water */
(PID.TID 0000.0001)                   F
(PID.TID 0000.0001)     ;
(PID.TID 0000.0001) usingPCoords =  /* use p (or p*) vertical coordinate */
(PID.TID 0000.0001)                   T
(PID.TID 0000.0001)     ;
(PID.TID 0000.0001) usingZCoords =  /* use z (or z*) vertical coordinate */
(PID.TID 0000.0001)                   F
(PID.TID 0000.0001)     ;
(PID.TID 0000.0001) tRef =   /* Reference temperature profile ( oC or K ) */
(PID.TID 0000.0001)                 2.951000000000000E+02,      /* K =  1 */
(PID.TID 0000.0001)                 2.952000000000000E+02,      /* K =  2 */
(PID.TID 0000.0001)                 2.954000000000000E+02,      /* K =  3 */
(PID.TID 0000.0001)                 2.956000000000000E+02,      /* K =  4 */
(PID.TID 0000.0001)                 2.960000000000000E+02,      /* K =  5 */
(PID.TID 0000.0001)                 2.966000000000000E+02,      /* K =  6 */
(PID.TID 0000.0001)                 2.973000000000000E+02,      /* K =  7 */
(PID.TID 0000.0001)                 2.982000000000000E+02,      /* K =  8 */
(PID.TID 0000.0001)                 2.993000000000000E+02,      /* K =  9 */
(PID.TID 0000.0001)                 3.006000000000000E+02,      /* K = 10 */
(PID.TID 0000.0001)                 3.024000000000000E+02,      /* K = 11 */
(PID.TID 0000.0001)                 3.059000000000000E+02,      /* K = 12 */
(PID.TID 0000.0001)                 3.118000000000000E+02,      /* K = 13 */
(PID.TID 0000.0001)                 3.218000000000000E+02,      /* K = 14 */
(PID.TID 0000.0001)                 3.383000000000000E+02,      /* K = 15 */
(PID.TID 0000.0001)                 3.595000000000000E+02,      /* K = 16 */
(PID.TID 0000.0001)                 3.828000000000000E+02,      /* K = 17 */
(PID.TID 0000.0001)                 4.086000000000000E+02,      /* K = 18 */
(PID.TID 0000.0001)                 4.375000000000000E+02,      /* K = 19 */
(PID.TID 0000.0001)                 4.706000000000000E+02,      /* K = 20 */
(PID.TID 0000.0001)                 5.092000000000000E+02,      /* K = 21 */
(PID.TID 0000.0001)                 5.558000000000000E+02,      /* K = 22 */
(PID.TID 0000.0001)                 6.149000000000000E+02,      /* K = 23 */
(PID.TID 0000.0001)                 6.963000000000000E+02,      /* K = 24 */
(PID.TID 0000.0001)                 8.272000000000000E+02,      /* K = 25 */
(PID.TID 0000.0001)                 1.153600000000000E+03       /* K = 26 */
(PID.TID 0000.0001)     ;
(PID.TID 0000.0001) sRef =   /* Reference salinity profile ( g/kg ) */
(PID.TID 0000.0001)    26 @  0.000000000000000E+00              /* K =  1: 26 */
(PID.TID 0000.0001)     ;
(PID.TID 0000.0001) rhoRef =   /* Density vertical profile from (Ref,sRef)( kg/m^3 ) */
(PID.TID 0000.0001)    26 @  9.998000000000000E+02              /* K =  1: 26 */
(PID.TID 0000.0001)     ;
(PID.TID 0000.0001) dBdrRef = /* Vertical grad. of reference buoyancy [(m/s/r)^2] */
(PID.TID 0000.0001)                 0.000000000000000E+00,      /* K =  1 */
(PID.TID 0000.0001)                 1.604020822972663E-07,      /* K =  2 */
(PID.TID 0000.0001)                 2.305314669656972E-07,      /* K =  3 */
(PID.TID 0000.0001)                 1.669031556286163E-07,      /* K =  4 */
(PID.TID 0000.0001)                 2.443043384715506E-07,      /* K =  5 */
(PID.TID 0000.0001)                 2.860066576999341E-07,      /* K =  6 */
(PID.TID 0000.0001)                 2.921875837384485E-07,      /* K =  7 */
(PID.TID 0000.0001)                 3.755074484194814E-07,      /* K =  8 */
(PID.TID 0000.0001)                 5.066322497832424E-07,      /* K =  9 */
(PID.TID 0000.0001)                 7.166887707647536E-07,      /* K = 10 */
(PID.TID 0000.0001)                 1.306741577704211E-06,      /* K = 11 */
(PID.TID 0000.0001)                 3.518055907999274E-06,      /* K = 12 */
(PID.TID 0000.0001)                 8.225060034419378E-06,      /* K = 13 */
(PID.TID 0000.0001)                 1.937860091746120E-05,      /* K = 14 */
(PID.TID 0000.0001)                 4.456361509018920E-05,      /* K = 15 */
(PID.TID 0000.0001)                 8.004656631735151E-05,      /* K = 16 */
(PID.TID 0000.0001)                 1.235417107379588E-04,      /* K = 17 */
(PID.TID 0000.0001)                 1.931534961382523E-04,      /* K = 18 */
(PID.TID 0000.0001)                 3.077255424266486E-04,      /* K = 19 */
(PID.TID 0000.0001)                 5.060735888621455E-04,      /* K = 20 */
(PID.TID 0000.0001)                 8.577447781720473E-04,      /* K = 21 */
(PID.TID 0000.0001)                 1.533315559624654E-03,      /* K = 22 */
(PID.TID 0000.0001)                 2.960876155175189E-03,      /* K = 23 */
(PID.TID 0000.0001)                 6.490610232038748E-03,      /* K = 24 */
(PID.TID 0000.0001)                 1.807701670627409E-02,      /* K = 25 */
(PID.TID 0000.0001)                 9.817506062475811E-02       /* K = 26 */
(PID.TID 0000.0001)     ;
(PID.TID 0000.0001) useStrainTensionVisc= /* Use StrainTension Form of Viscous Operator */
(PID.TID 0000.0001)                   F
(PID.TID 0000.0001)     ;
(PID.TID 0000.0001) useVariableVisc = /* Use variable horizontal viscosity */
(PID.TID 0000.0001)                   F
(PID.TID 0000.0001)     ;
(PID.TID 0000.0001) useHarmonicVisc = /* Use harmonic horizontal viscosity */
(PID.TID 0000.0001)                   F
(PID.TID 0000.0001)     ;
(PID.TID 0000.0001) useBiharmonicVisc= /* Use biharmonic horiz.  viscosity */
(PID.TID 0000.0001)                   F
(PID.TID 0000.0001)     ;
(PID.TID 0000.0001) useSmag3D = /* Use isotropic 3-D Smagorinsky viscosity */
(PID.TID 0000.0001)                   F
(PID.TID 0000.0001)     ;
(PID.TID 0000.0001) viscAh  =   /* Lateral harmonic viscosity ( m^2/s ) */
(PID.TID 0000.0001)                 0.000000000000000E+00
(PID.TID 0000.0001)     ;
(PID.TID 0000.0001) viscA4  =   /* Lateral biharmonic viscosity ( m^4/s ) */
(PID.TID 0000.0001)                 0.000000000000000E+00
(PID.TID 0000.0001)     ;
(PID.TID 0000.0001) no_slip_sides =  /* Viscous BCs: No-slip sides */
(PID.TID 0000.0001)                   F
(PID.TID 0000.0001)     ;
(PID.TID 0000.0001) sideDragFactor = /* side-drag scaling factor (non-dim) */
(PID.TID 0000.0001)                 2.000000000000000E+00
(PID.TID 0000.0001)     ;
(PID.TID 0000.0001) viscArNr = /* vertical profile of vertical viscosity (Pa^2/s )*/
(PID.TID 0000.0001)    26 @  0.000000000000000E+00              /* K =  1: 26 */
(PID.TID 0000.0001)     ;
(PID.TID 0000.0001) no_slip_bottom =  /* Viscous BCs: No-slip bottom */
(PID.TID 0000.0001)                   F
(PID.TID 0000.0001)     ;
(PID.TID 0000.0001) bottomVisc_pCell = /* Partial-cell in bottom Visc. BC */
(PID.TID 0000.0001)                   F
(PID.TID 0000.0001)     ;
(PID.TID 0000.0001) bottomDragLinear = /* linear bottom-drag coefficient ( m/s ) */
(PID.TID 0000.0001)                 0.000000000000000E+00
(PID.TID 0000.0001)     ;
(PID.TID 0000.0001) bottomDragQuadratic = /* quadratic bottom-drag coefficient (-) */
(PID.TID 0000.0001)                 0.000000000000000E+00
(PID.TID 0000.0001)     ;
(PID.TID 0000.0001) selectBotDragQuadr = /* select quadratic bottom drag options */
(PID.TID 0000.0001)                      -1
(PID.TID 0000.0001)     ;
(PID.TID 0000.0001) diffKhT =   /* Laplacian diffusion of heat laterally ( m^2/s ) */
(PID.TID 0000.0001)                 0.000000000000000E+00
(PID.TID 0000.0001)     ;
(PID.TID 0000.0001) diffK4T =   /* Biharmonic diffusion of heat laterally ( m^4/s ) */
(PID.TID 0000.0001)                 0.000000000000000E+00
(PID.TID 0000.0001)     ;
(PID.TID 0000.0001) diffKhS =   /* Laplacian diffusion of salt laterally ( m^2/s ) */
(PID.TID 0000.0001)                 0.000000000000000E+00
(PID.TID 0000.0001)     ;
(PID.TID 0000.0001) diffK4S =   /* Biharmonic diffusion of salt laterally ( m^4/s ) */
(PID.TID 0000.0001)                 0.000000000000000E+00
(PID.TID 0000.0001)     ;
(PID.TID 0000.0001) diffKrNrT = /* vertical profile of vertical diffusion of Temp (Pa^2/s )*/
(PID.TID 0000.0001)    26 @  0.000000000000000E+00              /* K =  1: 26 */
(PID.TID 0000.0001)     ;
(PID.TID 0000.0001) diffKrNrS = /* vertical profile of vertical diffusion of Salt (Pa^2/s )*/
(PID.TID 0000.0001)    26 @  0.000000000000000E+00              /* K =  1: 26 */
(PID.TID 0000.0001)     ;
(PID.TID 0000.0001) diffKrBL79surf = /* Surface diffusion for Bryan and Lewis 79 ( m^2/s ) */
(PID.TID 0000.0001)                 0.000000000000000E+00
(PID.TID 0000.0001)     ;
(PID.TID 0000.0001) diffKrBL79deep = /* Deep diffusion for Bryan and Lewis 1979 ( m^2/s ) */
(PID.TID 0000.0001)                 0.000000000000000E+00
(PID.TID 0000.0001)     ;
(PID.TID 0000.0001) diffKrBL79scl = /* Depth scale for Bryan and Lewis 1979 ( m ) */
(PID.TID 0000.0001)                 2.000000000000000E+02
(PID.TID 0000.0001)     ;
(PID.TID 0000.0001) diffKrBL79Ho = /* Turning depth for Bryan and Lewis 1979 ( m ) */
(PID.TID 0000.0001)                -2.000000000000000E+03
(PID.TID 0000.0001)     ;
(PID.TID 0000.0001) ivdc_kappa = /* Implicit Vertical Diffusivity for Convection (Pa^2/s) */
(PID.TID 0000.0001)                 0.000000000000000E+00
(PID.TID 0000.0001)     ;
(PID.TID 0000.0001) hMixCriteria=  /* Criteria for mixed-layer diagnostic */
(PID.TID 0000.0001)                -8.000000000000000E-01
(PID.TID 0000.0001)     ;
(PID.TID 0000.0001) dRhoSmall =  /* Parameter for mixed-layer diagnostic */
(PID.TID 0000.0001)                 1.000000000000000E-06
(PID.TID 0000.0001)     ;
(PID.TID 0000.0001) hMixSmooth=  /* Smoothing parameter for mixed-layer diagnostic */
(PID.TID 0000.0001)                 0.000000000000000E+00
(PID.TID 0000.0001)     ;
(PID.TID 0000.0001) eosType =  /* Type of Equation of State */
(PID.TID 0000.0001)               'IDEALG'
(PID.TID 0000.0001)     ;
(PID.TID 0000.0001) surf_pRef = /* Surface reference pressure ( Pa ) */
(PID.TID 0000.0001)                 1.013250000000000E+05
(PID.TID 0000.0001)     ;
(PID.TID 0000.0001) celsius2K = /* 0 degree Celsius converted to Kelvin ( K ) */
(PID.TID 0000.0001)                 2.731500000000000E+02
(PID.TID 0000.0001)     ;
(PID.TID 0000.0001) atm_Rd =    /* gas constant for dry air ( J/kg/K ) */
(PID.TID 0000.0001)                 2.870400000000000E+02
(PID.TID 0000.0001)     ;
(PID.TID 0000.0001) atm_Cp =    /* specific heat (Cp) of dry air ( J/kg/K ) */
(PID.TID 0000.0001)                 1.004640000000000E+03
(PID.TID 0000.0001)     ;
(PID.TID 0000.0001) atm_kappa = /* kappa (=Rd/Cp ) of dry air */
(PID.TID 0000.0001)                 2.857142857142857E-01
(PID.TID 0000.0001)     ;
(PID.TID 0000.0001) atm_Rq =  /* water vap. specific vol. anomaly relative to dry air */
(PID.TID 0000.0001)                 6.078000000000000E-01
(PID.TID 0000.0001)     ;
(PID.TID 0000.0001) atm_Po =    /* standard reference pressure ( Pa ) */
(PID.TID 0000.0001)                 1.000000000000000E+05
(PID.TID 0000.0001)     ;
(PID.TID 0000.0001) thetaConst= /* constant reference for potential temperature ( K ) */
(PID.TID 0000.0001)                 2.951000000000000E+02
(PID.TID 0000.0001)     ;
(PID.TID 0000.0001) integr_GeoPot =  /* select how the geopotential is integrated */
(PID.TID 0000.0001)                       2
(PID.TID 0000.0001)     ;
(PID.TID 0000.0001) selectFindRoSurf=  /* select how Surf.Ref. pressure is defined */
(PID.TID 0000.0001)                       1
(PID.TID 0000.0001)     ;
(PID.TID 0000.0001) rhoConst  = /* Reference density (Boussinesq)  ( kg/m^3 ) */
(PID.TID 0000.0001)                 9.998000000000000E+02
(PID.TID 0000.0001)     ;
(PID.TID 0000.0001) rhoFacC = /* normalized Reference density @ cell-Center (-) */
(PID.TID 0000.0001)    26 @  1.000000000000000E+00              /* K =  1: 26 */
(PID.TID 0000.0001)     ;
(PID.TID 0000.0001) rhoFacF = /* normalized Reference density @ W-Interface (-) */
(PID.TID 0000.0001)    27 @  1.000000000000000E+00              /* K =  1: 27 */
(PID.TID 0000.0001)     ;
(PID.TID 0000.0001) rhoConstFresh = /* Fresh-water reference density ( kg/m^3 ) */
(PID.TID 0000.0001)                 9.998000000000000E+02
(PID.TID 0000.0001)     ;
(PID.TID 0000.0001) gravity =   /* Gravitational acceleration ( m/s^2 ) */
(PID.TID 0000.0001)                 9.800000000000001E+00
(PID.TID 0000.0001)     ;
(PID.TID 0000.0001) gBaro =   /* Barotropic gravity ( m/s^2 ) */
(PID.TID 0000.0001)                 9.800000000000001E+00
(PID.TID 0000.0001)     ;
(PID.TID 0000.0001) gravFacC = /* gravity factor (vs surf.) @ cell-Center (-) */
(PID.TID 0000.0001)    26 @  1.000000000000000E+00              /* K =  1: 26 */
(PID.TID 0000.0001)     ;
(PID.TID 0000.0001) gravFacF = /* gravity factor (vs surf.) @ W-Interface (-) */
(PID.TID 0000.0001)    27 @  1.000000000000000E+00              /* K =  1: 27 */
(PID.TID 0000.0001)     ;
(PID.TID 0000.0001) rotationPeriod =   /* Rotation Period ( s ) */
(PID.TID 0000.0001)                 8.616400000000000E+04
(PID.TID 0000.0001)     ;
(PID.TID 0000.0001) omega =   /* Angular velocity ( rad/s ) */
(PID.TID 0000.0001)                 7.292123516990375E-05
(PID.TID 0000.0001)     ;
(PID.TID 0000.0001) f0 =   /* Reference coriolis parameter ( 1/s ) */
(PID.TID 0000.0001)                 1.000000000000000E-04
(PID.TID 0000.0001)     ;
(PID.TID 0000.0001) beta =   /* Beta ( 1/(m.s) ) */
(PID.TID 0000.0001)                 9.999999999999999E-12
(PID.TID 0000.0001)     ;
(PID.TID 0000.0001) fPrime =   /* Second coriolis parameter ( 1/s ) */
(PID.TID 0000.0001)                 0.000000000000000E+00
(PID.TID 0000.0001)     ;
(PID.TID 0000.0001) rigidLid =   /* Rigid lid on/off flag */
(PID.TID 0000.0001)                   F
(PID.TID 0000.0001)     ;
(PID.TID 0000.0001) implicitFreeSurface =   /* Implicit free surface on/off flag */
(PID.TID 0000.0001)                   T
(PID.TID 0000.0001)     ;
(PID.TID 0000.0001) freeSurfFac =   /* Implicit free surface factor */
(PID.TID 0000.0001)                 1.000000000000000E+00
(PID.TID 0000.0001)     ;
(PID.TID 0000.0001) implicSurfPress =  /* Surface Pressure implicit factor (0-1) */
(PID.TID 0000.0001)                 1.000000000000000E+00
(PID.TID 0000.0001)     ;
(PID.TID 0000.0001) implicDiv2DFlow =  /* Barot. Flow Div. implicit factor (0-1) */
(PID.TID 0000.0001)                 1.000000000000000E+00
(PID.TID 0000.0001)     ;
(PID.TID 0000.0001) uniformLin_PhiSurf = /* use uniform Bo_surf on/off flag */
(PID.TID 0000.0001)                   F
(PID.TID 0000.0001)     ;
(PID.TID 0000.0001) uniformFreeSurfLev = /* free-surface level-index is uniform */
(PID.TID 0000.0001)                   F
(PID.TID 0000.0001)     ;
(PID.TID 0000.0001) sIceLoadFac =  /* scale factor for sIceLoad (0-1) */
(PID.TID 0000.0001)                 1.000000000000000E+00
(PID.TID 0000.0001)     ;
(PID.TID 0000.0001) hFacMin =   /* minimum partial cell factor (hFac) */
(PID.TID 0000.0001)                 1.000000000000000E+00
(PID.TID 0000.0001)     ;
(PID.TID 0000.0001) hFacMinDr = /* minimum partial cell thickness (Pa) */
(PID.TID 0000.0001)                 0.000000000000000E+00
(PID.TID 0000.0001)     ;
(PID.TID 0000.0001) exactConserv =  /* Exact Volume Conservation on/off flag */
(PID.TID 0000.0001)                   T
(PID.TID 0000.0001)     ;
(PID.TID 0000.0001) linFSConserveTr = /* Tracer correction for Lin Free Surface on/off flag */
(PID.TID 0000.0001)                   F
(PID.TID 0000.0001)     ;
(PID.TID 0000.0001) nonlinFreeSurf = /* Non-linear Free Surf. options (-1,0,1,2,3)*/
(PID.TID 0000.0001)                       4
(PID.TID 0000.0001)      -1,0= Off ; 1,2,3= On, 2=+rescale gU,gV, 3=+update cg2d solv.
(PID.TID 0000.0001)     ;
(PID.TID 0000.0001) hFacInf =   /* lower threshold for hFac (nonlinFreeSurf only)*/
(PID.TID 0000.0001)                 2.000000000000000E-01
(PID.TID 0000.0001)     ;
(PID.TID 0000.0001) hFacSup =   /* upper threshold for hFac (nonlinFreeSurf only)*/
(PID.TID 0000.0001)                 2.000000000000000E+00
(PID.TID 0000.0001)     ;
(PID.TID 0000.0001) select_rStar = /* r* Vertical coord. options (=0 r coord.; >0 uses r*)*/
(PID.TID 0000.0001)                       2
(PID.TID 0000.0001)     ;
(PID.TID 0000.0001) useRealFreshWaterFlux = /* Real Fresh Water Flux on/off flag*/
(PID.TID 0000.0001)                   F
(PID.TID 0000.0001)     ;
(PID.TID 0000.0001) temp_EvPrRn = /* Temp. of Evap/Prec/R (UNSET=use local T)(oC)*/
(PID.TID 0000.0001)                 1.234567000000000E+05
(PID.TID 0000.0001)     ;
(PID.TID 0000.0001) salt_EvPrRn = /* Salin. of Evap/Prec/R (UNSET=use local S)(g/kg)*/
(PID.TID 0000.0001)                 0.000000000000000E+00
(PID.TID 0000.0001)     ;
(PID.TID 0000.0001) selectAddFluid = /* option for mass source/sink of fluid (=0: off) */
(PID.TID 0000.0001)                       0
(PID.TID 0000.0001)     ;
(PID.TID 0000.0001) temp_addMass = /* Temp. of addMass array (UNSET=use local T)(oC)*/
(PID.TID 0000.0001)                 1.234567000000000E+05
(PID.TID 0000.0001)     ;
(PID.TID 0000.0001) salt_addMass = /* Salin. of addMass array (UNSET=use local S)(g/kg)*/
(PID.TID 0000.0001)                 0.000000000000000E+00
(PID.TID 0000.0001)     ;
(PID.TID 0000.0001) convertFW2Salt = /* convert F.W. Flux to Salt Flux (-1=use local S)(g/kg)*/
(PID.TID 0000.0001)                 3.500000000000000E+01
(PID.TID 0000.0001)     ;
(PID.TID 0000.0001) use3Dsolver = /* use 3-D pressure solver on/off flag */
(PID.TID 0000.0001)                   F
(PID.TID 0000.0001)     ;
(PID.TID 0000.0001) nonHydrostatic =  /* Non-Hydrostatic on/off flag */
(PID.TID 0000.0001)                   F
(PID.TID 0000.0001)     ;
(PID.TID 0000.0001) nh_Am2 = /* Non-Hydrostatic terms scaling factor */
(PID.TID 0000.0001)                 1.000000000000000E+00
(PID.TID 0000.0001)     ;
(PID.TID 0000.0001) implicitNHPress = /* Non-Hyd Pressure implicit factor (0-1)*/
(PID.TID 0000.0001)                 1.000000000000000E+00
(PID.TID 0000.0001)     ;
(PID.TID 0000.0001) selectNHfreeSurf = /* Non-Hyd (free-)Surface option */
(PID.TID 0000.0001)                       0
(PID.TID 0000.0001)     ;
(PID.TID 0000.0001) quasiHydrostatic = /* Quasi-Hydrostatic on/off flag */
(PID.TID 0000.0001)                   F
(PID.TID 0000.0001)     ;
(PID.TID 0000.0001) calc_wVelocity = /* vertical velocity calculation on/off flag */
(PID.TID 0000.0001)                   T
(PID.TID 0000.0001)     ;
(PID.TID 0000.0001) momStepping =  /* Momentum equation on/off flag */
(PID.TID 0000.0001)                   T
(PID.TID 0000.0001)     ;
(PID.TID 0000.0001) vectorInvariantMomentum= /* Vector-Invariant Momentum on/off */
(PID.TID 0000.0001)                   T
(PID.TID 0000.0001)     ;
(PID.TID 0000.0001) momAdvection =  /* Momentum advection on/off flag */
(PID.TID 0000.0001)                   T
(PID.TID 0000.0001)     ;
(PID.TID 0000.0001) momViscosity =  /* Momentum viscosity on/off flag */
(PID.TID 0000.0001)                   T
(PID.TID 0000.0001)     ;
(PID.TID 0000.0001) momImplVertAdv= /* Momentum implicit vert. advection on/off*/
(PID.TID 0000.0001)                   F
(PID.TID 0000.0001)     ;
(PID.TID 0000.0001) implicitViscosity = /* Implicit viscosity on/off flag */
(PID.TID 0000.0001)                   F
(PID.TID 0000.0001)     ;
(PID.TID 0000.0001) selectImplicitDrag= /* Implicit bot Drag options (0,1,2)*/
(PID.TID 0000.0001)                       0
(PID.TID 0000.0001)     0= Expl. ; 1= Impl. on provis. Vel ; 2= Fully Impl (with surf.P)
(PID.TID 0000.0001)     ;
(PID.TID 0000.0001) selectMetricTerms= /* Metric-Terms on/off flag (=0/1) */
(PID.TID 0000.0001)                       0
(PID.TID 0000.0001)     ;
(PID.TID 0000.0001) useNHMTerms = /* Non-Hydrostatic Metric-Terms on/off */
(PID.TID 0000.0001)                   F
(PID.TID 0000.0001)     ;
(PID.TID 0000.0001) selectCoriMap = /* Coriolis Map options (0,1,2,3)*/
(PID.TID 0000.0001)                       2
(PID.TID 0000.0001)     0= f-Plane ; 1= Beta-Plane ; 2= Spherical ; 3= read from file
(PID.TID 0000.0001)     ;
(PID.TID 0000.0001) select3dCoriScheme= /* 3-D Coriolis on/off flag (=0/1) */
(PID.TID 0000.0001)                       0
(PID.TID 0000.0001)     ;
(PID.TID 0000.0001) useCoriolis =  /* Coriolis on/off flag */
(PID.TID 0000.0001)                   T
(PID.TID 0000.0001)     ;
(PID.TID 0000.0001) useCDscheme =  /* CD scheme on/off flag */
(PID.TID 0000.0001)                   F
(PID.TID 0000.0001)     ;
(PID.TID 0000.0001) selectCoriScheme= /* Scheme selector for Coriolis-Term */
(PID.TID 0000.0001)                       0
(PID.TID 0000.0001)    = 0 : original discretization (simple averaging, no hFac)
(PID.TID 0000.0001)    = 1 : Wet-point averaging (Jamar & Ozer 1986)
(PID.TID 0000.0001)    = 2 : hFac weighted average (Angular Mom. conserving)
(PID.TID 0000.0001)    = 3 : energy conserving scheme using hFac weighted average
(PID.TID 0000.0001)     ;
(PID.TID 0000.0001) useAbsVorticity= /* V.I Works with f+zeta in Coriolis */
(PID.TID 0000.0001)                   T
(PID.TID 0000.0001)     ;
(PID.TID 0000.0001) selectVortScheme= /* V.I Scheme selector for Vorticity-Term */
(PID.TID 0000.0001)                       3
(PID.TID 0000.0001)    = 0 : enstrophy (Shallow-Water Eq.) conserving scheme by Sadourny, JAS 75
(PID.TID 0000.0001)    = 1 : same as 0 with modified hFac
(PID.TID 0000.0001)    = 2 : energy conserving scheme (used by Sadourny in JAS 75 paper)
(PID.TID 0000.0001)    = 3 : energy (general) and enstrophy (2D, nonDiv.) conserving scheme
(PID.TID 0000.0001)          from Sadourny (Burridge & Haseler, ECMWF Rep.4, 1977)
(PID.TID 0000.0001)     ;
(PID.TID 0000.0001) useJamartMomAdv= /* V.I Non-linear terms Jamart flag */
(PID.TID 0000.0001)                   F
(PID.TID 0000.0001)     ;
(PID.TID 0000.0001) upwindVorticity= /* V.I Upwind bias vorticity flag */
(PID.TID 0000.0001)                   F
(PID.TID 0000.0001)     ;
(PID.TID 0000.0001) highOrderVorticity= /* V.I High order vort. advect. flag */
(PID.TID 0000.0001)                   F
(PID.TID 0000.0001)     ;
(PID.TID 0000.0001) upwindShear= /* V.I Upwind vertical Shear advection flag */
(PID.TID 0000.0001)                   F
(PID.TID 0000.0001)     ;
(PID.TID 0000.0001) selectKEscheme= /* V.I Kinetic Energy scheme selector */
(PID.TID 0000.0001)                       3
(PID.TID 0000.0001)     ;
(PID.TID 0000.0001) momForcing =  /* Momentum forcing on/off flag */
(PID.TID 0000.0001)                   T
(PID.TID 0000.0001)     ;
(PID.TID 0000.0001) momTidalForcing = /* Momentum Tidal forcing on/off flag */
(PID.TID 0000.0001)                   T
(PID.TID 0000.0001)     ;
(PID.TID 0000.0001) momPressureForcing =  /* Momentum pressure term on/off flag */
(PID.TID 0000.0001)                   T
(PID.TID 0000.0001)     ;
(PID.TID 0000.0001) implicitIntGravWave= /* Implicit Internal Gravity Wave flag */
(PID.TID 0000.0001)                   F
(PID.TID 0000.0001)     ;
(PID.TID 0000.0001) staggerTimeStep =    /* Stagger time stepping on/off flag */
(PID.TID 0000.0001)                   T
(PID.TID 0000.0001)     ;
(PID.TID 0000.0001) doResetHFactors = /* reset thickness factors @ each time-step */
(PID.TID 0000.0001)                   F
(PID.TID 0000.0001)     ;
(PID.TID 0000.0001) multiDimAdvection =  /* enable/disable Multi-Dim Advection */
(PID.TID 0000.0001)                   T
(PID.TID 0000.0001)     ;
(PID.TID 0000.0001) useMultiDimAdvec =   /* Multi-Dim Advection is/is-not used */
(PID.TID 0000.0001)                   T
(PID.TID 0000.0001)     ;
(PID.TID 0000.0001) implicitDiffusion = /* Implicit Diffusion on/off flag */
(PID.TID 0000.0001)                   F
(PID.TID 0000.0001)     ;
(PID.TID 0000.0001) tempStepping =  /* Temperature equation on/off flag */
(PID.TID 0000.0001)                   T
(PID.TID 0000.0001)     ;
(PID.TID 0000.0001) tempAdvection = /* Temperature advection on/off flag */
(PID.TID 0000.0001)                   T
(PID.TID 0000.0001)     ;
(PID.TID 0000.0001) tempImplVertAdv = /* Temp. implicit vert. advection on/off */
(PID.TID 0000.0001)                   F
(PID.TID 0000.0001)     ;
(PID.TID 0000.0001) tempForcing  =  /* Temperature forcing on/off flag */
(PID.TID 0000.0001)                   T
(PID.TID 0000.0001)     ;
(PID.TID 0000.0001) addFrictionHeating= /* account for frictional heating */
(PID.TID 0000.0001)                   T
(PID.TID 0000.0001)     ;
(PID.TID 0000.0001) doThetaClimRelax = /* apply SST relaxation on/off flag */
(PID.TID 0000.0001)                   F
(PID.TID 0000.0001)     ;
(PID.TID 0000.0001) tempIsActiveTr = /* Temp. is a dynamically Active Tracer */
(PID.TID 0000.0001)                   T
(PID.TID 0000.0001)     ;
(PID.TID 0000.0001) saltStepping =  /* Salinity equation on/off flag */
(PID.TID 0000.0001)                   T
(PID.TID 0000.0001)     ;
(PID.TID 0000.0001) saltAdvection = /* Salinity advection on/off flag */
(PID.TID 0000.0001)                   T
(PID.TID 0000.0001)     ;
(PID.TID 0000.0001) saltImplVertAdv = /* Sali. implicit vert. advection on/off */
(PID.TID 0000.0001)                   F
(PID.TID 0000.0001)     ;
(PID.TID 0000.0001) saltForcing  =  /* Salinity forcing on/off flag */
(PID.TID 0000.0001)                   T
(PID.TID 0000.0001)     ;
(PID.TID 0000.0001) doSaltClimRelax = /* apply SSS relaxation on/off flag */
(PID.TID 0000.0001)                   F
(PID.TID 0000.0001)     ;
(PID.TID 0000.0001) saltIsActiveTr = /* Salt  is a dynamically Active Tracer */
(PID.TID 0000.0001)                   T
(PID.TID 0000.0001)     ;
(PID.TID 0000.0001)  readBinaryPrec = /* Precision used for reading binary files */
(PID.TID 0000.0001)                      64
(PID.TID 0000.0001)     ;
(PID.TID 0000.0001) writeBinaryPrec = /* Precision used for writing binary files */
(PID.TID 0000.0001)                      64
(PID.TID 0000.0001)     ;
(PID.TID 0000.0001)  rwSuffixType =   /* select format of mds file suffix */
(PID.TID 0000.0001)                       0
(PID.TID 0000.0001)    = 0 : myIter (I10.10) ;   = 1 : 100*myTime (100th sec) ;
(PID.TID 0000.0001)    = 2 : myTime (seconds);   = 3 : myTime/360 (10th of hr);
(PID.TID 0000.0001)    = 4 : myTime/3600 (hours)
(PID.TID 0000.0001)     ;
(PID.TID 0000.0001)  globalFiles = /* write "global" (=not per tile) files */
(PID.TID 0000.0001)                   F
(PID.TID 0000.0001)     ;
(PID.TID 0000.0001)  useSingleCpuIO = /* only master MPI process does I/O */
(PID.TID 0000.0001)                   F
(PID.TID 0000.0001)     ;
(PID.TID 0000.0001)  useSingleCpuInput = /* only master process reads input */
(PID.TID 0000.0001)                   F
(PID.TID 0000.0001)     ;
(PID.TID 0000.0001) /* debLev[*]  : level of debug & auxiliary message printing */
(PID.TID 0000.0001) debLevZero =  0 ; /* level of disabled aux. msg printing */
(PID.TID 0000.0001)    debLevA =  1 ; /* level of minimum  aux. msg printing */
(PID.TID 0000.0001)    debLevB =  2 ; /* level of low aux. print (report read-file opening)*/
(PID.TID 0000.0001)    debLevC =  3 ; /* level of moderate debug prt (most pkgs debug msg) */
(PID.TID 0000.0001)    debLevD =  4 ; /* level of enhanced debug prt (add DEBUG_STATS prt) */
(PID.TID 0000.0001)    debLevE =  5 ; /* level of extensive debug printing */
(PID.TID 0000.0001) debugLevel =  /* select debug printing level */
(PID.TID 0000.0001)                       2
(PID.TID 0000.0001)     ;
(PID.TID 0000.0001)  plotLevel =  /* select PLOT_FIELD printing level */
(PID.TID 0000.0001)                       2
(PID.TID 0000.0001)     ;
(PID.TID 0000.0001) //
(PID.TID 0000.0001) // Elliptic solver(s) paramters ( PARM02 in namelist )
(PID.TID 0000.0001) //
(PID.TID 0000.0001) cg2dMaxIters =   /* Upper limit on 2d con. grad iterations  */
(PID.TID 0000.0001)                     200
(PID.TID 0000.0001)     ;
(PID.TID 0000.0001) cg2dMinItersNSA =   /* Minimum number of iterations of 2d con. grad solver  */
(PID.TID 0000.0001)                       0
(PID.TID 0000.0001)     ;
(PID.TID 0000.0001) cg2dUseMinResSol= /* use cg2d last-iter(=0) / min-resid.(=1) solution */
(PID.TID 0000.0001)                       0
(PID.TID 0000.0001)     ;
(PID.TID 0000.0001) cg2dTargetResidual =   /* 2d con. grad target residual  */
(PID.TID 0000.0001)                 1.000000000000000E-07
(PID.TID 0000.0001)     ;
(PID.TID 0000.0001) cg2dTargetResWunit =   /* CG2d target residual [W units] */
(PID.TID 0000.0001)                 1.000000000000000E-17
(PID.TID 0000.0001)     ;
(PID.TID 0000.0001) cg2dPreCondFreq =   /* Freq. for updating cg2d preconditioner */
(PID.TID 0000.0001)                       1
(PID.TID 0000.0001)     ;
(PID.TID 0000.0001) useSRCGSolver =  /* use single reduction CG solver(s) */
(PID.TID 0000.0001)                   F
(PID.TID 0000.0001)     ;
(PID.TID 0000.0001) useNSACGSolver =  /* use not-self-adjoint CG solver */
(PID.TID 0000.0001)                   F
(PID.TID 0000.0001)     ;
(PID.TID 0000.0001) printResidualFreq = /* Freq. for printing CG residual */
(PID.TID 0000.0001)                       0
(PID.TID 0000.0001)     ;
(PID.TID 0000.0001) //
(PID.TID 0000.0001) // Time stepping paramters ( PARM03 in namelist )
(PID.TID 0000.0001) //
(PID.TID 0000.0001) deltaTMom =   /* Momentum equation timestep ( s ) */
(PID.TID 0000.0001)                 3.600000000000000E+02
(PID.TID 0000.0001)     ;
(PID.TID 0000.0001) deltaTFreeSurf = /* FreeSurface equation timestep ( s ) */
(PID.TID 0000.0001)                 3.600000000000000E+02
(PID.TID 0000.0001)     ;
(PID.TID 0000.0001) dTtracerLev =  /* Tracer equation timestep ( s ) */
(PID.TID 0000.0001)    26 @  3.600000000000000E+02              /* K =  1: 26 */
(PID.TID 0000.0001)     ;
(PID.TID 0000.0001) deltaTClock  =   /* Model clock timestep ( s ) */
(PID.TID 0000.0001)                 3.600000000000000E+02
(PID.TID 0000.0001)     ;
(PID.TID 0000.0001) cAdjFreq =   /* Convective adjustment interval ( s ) */
(PID.TID 0000.0001)                 0.000000000000000E+00
(PID.TID 0000.0001)     ;
(PID.TID 0000.0001) momForcingOutAB = /* =1: take Momentum Forcing out of Adams-Bash. stepping */
(PID.TID 0000.0001)                       1
(PID.TID 0000.0001)     ;
(PID.TID 0000.0001) tracForcingOutAB = /* =1: take T,S,pTr Forcing out of Adams-Bash. stepping */
(PID.TID 0000.0001)                       1
(PID.TID 0000.0001)     ;
(PID.TID 0000.0001) momDissip_In_AB = /* put Dissipation Tendency in Adams-Bash. stepping */
(PID.TID 0000.0001)                   T
(PID.TID 0000.0001)     ;
(PID.TID 0000.0001) doAB_onGtGs = /* apply AB on Tendencies (rather than on T,S)*/
(PID.TID 0000.0001)                   T
(PID.TID 0000.0001)     ;
(PID.TID 0000.0001) abEps =   /* Adams-Bashforth-2 stabilizing weight */
(PID.TID 0000.0001)                 1.000000000000000E-01
(PID.TID 0000.0001)     ;
(PID.TID 0000.0001) applyExchUV_early = /* Apply EXCH to U,V earlier in time-step */
(PID.TID 0000.0001)                   F
(PID.TID 0000.0001)     ;
(PID.TID 0000.0001) pickupStrictlyMatch= /* stop if pickup do not strictly match */
(PID.TID 0000.0001)                   T
(PID.TID 0000.0001)     ;
(PID.TID 0000.0001) nIter0   =   /* Run starting timestep number */
(PID.TID 0000.0001)                       0
(PID.TID 0000.0001)     ;
(PID.TID 0000.0001) nTimeSteps = /* Number of timesteps */
(PID.TID 0000.0001)                      40
(PID.TID 0000.0001)     ;
(PID.TID 0000.0001) nEndIter =   /* Run ending timestep number */
(PID.TID 0000.0001)                      40
(PID.TID 0000.0001)     ;
(PID.TID 0000.0001) baseTime =   /* Model base time ( s ) */
(PID.TID 0000.0001)                 0.000000000000000E+00
(PID.TID 0000.0001)     ;
(PID.TID 0000.0001) startTime =  /* Run start time ( s ) */
(PID.TID 0000.0001)                 0.000000000000000E+00
(PID.TID 0000.0001)     ;
(PID.TID 0000.0001) endTime  =   /* Integration ending time ( s ) */
(PID.TID 0000.0001)                 1.440000000000000E+04
(PID.TID 0000.0001)     ;
(PID.TID 0000.0001) pChkPtFreq = /* Permanent restart/pickup file interval ( s ) */
(PID.TID 0000.0001)                 3.110400000000000E+08
(PID.TID 0000.0001)     ;
(PID.TID 0000.0001) chkPtFreq  = /* Rolling restart/pickup file interval ( s ) */
(PID.TID 0000.0001)                 3.110400000000000E+07
(PID.TID 0000.0001)     ;
(PID.TID 0000.0001) pickup_write_mdsio =   /* Model IO flag. */
(PID.TID 0000.0001)                   T
(PID.TID 0000.0001)     ;
(PID.TID 0000.0001) pickup_read_mdsio =   /* Model IO flag. */
(PID.TID 0000.0001)                   T
(PID.TID 0000.0001)     ;
(PID.TID 0000.0001) pickup_write_mnc =   /* Model IO flag. */
(PID.TID 0000.0001)                   F
(PID.TID 0000.0001)     ;
(PID.TID 0000.0001) pickup_read_mnc =   /* Model IO flag. */
(PID.TID 0000.0001)                   F
(PID.TID 0000.0001)     ;
(PID.TID 0000.0001) writePickupAtEnd =   /* Model IO flag. */
(PID.TID 0000.0001)                   T
(PID.TID 0000.0001)     ;
(PID.TID 0000.0001) dumpFreq =   /* Model state write out interval ( s ). */
(PID.TID 0000.0001)                 2.592000000000000E+06
(PID.TID 0000.0001)     ;
(PID.TID 0000.0001) dumpInitAndLast= /* write out Initial & Last iter. model state */
(PID.TID 0000.0001)                   T
(PID.TID 0000.0001)     ;
(PID.TID 0000.0001) snapshot_mdsio =   /* Model IO flag. */
(PID.TID 0000.0001)                   F
(PID.TID 0000.0001)     ;
(PID.TID 0000.0001) snapshot_mnc =   /* Model IO flag. */
(PID.TID 0000.0001)                   T
(PID.TID 0000.0001)     ;
(PID.TID 0000.0001) monitorFreq =   /* Monitor output interval ( s ). */
(PID.TID 0000.0001)                 1.000000000000000E+00
(PID.TID 0000.0001)     ;
(PID.TID 0000.0001) monitorSelect = /* select group of variables to monitor */
(PID.TID 0000.0001)                       2
(PID.TID 0000.0001)     ;
(PID.TID 0000.0001) monitor_stdio =   /* Model IO flag. */
(PID.TID 0000.0001)                   T
(PID.TID 0000.0001)     ;
(PID.TID 0000.0001) monitor_mnc =   /* Model IO flag. */
(PID.TID 0000.0001)                   F
(PID.TID 0000.0001)     ;
(PID.TID 0000.0001) externForcingPeriod =   /* forcing period (s) */
(PID.TID 0000.0001)                 0.000000000000000E+00
(PID.TID 0000.0001)     ;
(PID.TID 0000.0001) externForcingCycle =   /* period of the cyle (s). */
(PID.TID 0000.0001)                 0.000000000000000E+00
(PID.TID 0000.0001)     ;
(PID.TID 0000.0001) tauThetaClimRelax =   /* relaxation time scale (s) */
(PID.TID 0000.0001)                 0.000000000000000E+00
(PID.TID 0000.0001)     ;
(PID.TID 0000.0001) tauSaltClimRelax =   /* relaxation time scale (s) */
(PID.TID 0000.0001)                 0.000000000000000E+00
(PID.TID 0000.0001)     ;
(PID.TID 0000.0001) latBandClimRelax =   /* max. Lat. where relaxation */
(PID.TID 0000.0001)                 1.800000000000000E+02
(PID.TID 0000.0001)     ;
(PID.TID 0000.0001) //
(PID.TID 0000.0001) // Gridding paramters ( PARM04 in namelist )
(PID.TID 0000.0001) //
(PID.TID 0000.0001) usingCartesianGrid = /* Cartesian coordinates flag ( True/False ) */
(PID.TID 0000.0001)                   F
(PID.TID 0000.0001)     ;
(PID.TID 0000.0001) usingCylindricalGrid = /* Cylindrical coordinates flag ( True/False ) */
(PID.TID 0000.0001)                   F
(PID.TID 0000.0001)     ;
(PID.TID 0000.0001) usingSphericalPolarGrid = /* Spherical coordinates flag ( True/False ) */
(PID.TID 0000.0001)                   F
(PID.TID 0000.0001)     ;
(PID.TID 0000.0001) usingCurvilinearGrid = /* Curvilinear coordinates flag ( True/False ) */
(PID.TID 0000.0001)                   T
(PID.TID 0000.0001)     ;
(PID.TID 0000.0001) useMin4hFacEdges = /* set hFacW,S as minimum of adjacent hFacC factor */
(PID.TID 0000.0001)                   F
(PID.TID 0000.0001)     ;
(PID.TID 0000.0001) interViscAr_pCell = /* account for partial-cell in interior vert. viscosity */
(PID.TID 0000.0001)                   F
(PID.TID 0000.0001)     ;
(PID.TID 0000.0001) interDiffKr_pCell = /* account for partial-cell in interior vert. diffusion */
(PID.TID 0000.0001)                   F
(PID.TID 0000.0001)     ;
(PID.TID 0000.0001) pCellMix_select = /* option to enhance mixing near surface & bottom */
(PID.TID 0000.0001)                       0
(PID.TID 0000.0001)     ;
(PID.TID 0000.0001) selectSigmaCoord = /* Hybrid-Sigma Vert. Coordinate option */
(PID.TID 0000.0001)                       0
(PID.TID 0000.0001)     ;
(PID.TID 0000.0001) rSigmaBnd = /* r/sigma transition ( units of r == Pa ) */
(PID.TID 0000.0001)                 1.234567000000000E+05
(PID.TID 0000.0001)     ;
(PID.TID 0000.0001) rkSign =   /* index orientation relative to vertical coordinate */
(PID.TID 0000.0001)                -1.000000000000000E+00
(PID.TID 0000.0001)     ;
(PID.TID 0000.0001) gravitySign = /* gravity orientation relative to vertical coordinate */
(PID.TID 0000.0001)                 1.000000000000000E+00
(PID.TID 0000.0001)     ;
(PID.TID 0000.0001) seaLev_Z =  /* reference height of sea-level [m] */
(PID.TID 0000.0001)                 0.000000000000000E+00
(PID.TID 0000.0001)     ;
(PID.TID 0000.0001) top_Pres =  /* pressure at the top (r-axis origin) [Pa] */
(PID.TID 0000.0001)                 0.000000000000000E+00
(PID.TID 0000.0001)     ;
(PID.TID 0000.0001) mass2rUnit = /* convert mass per unit area [kg/m2] to r-units [Pa] */
(PID.TID 0000.0001)                 9.800000000000001E+00
(PID.TID 0000.0001)     ;
(PID.TID 0000.0001) rUnit2mass = /* convert r-units [Pa] to mass per unit area [kg/m2] */
(PID.TID 0000.0001)                 1.020408163265306E-01
(PID.TID 0000.0001)     ;
(PID.TID 0000.0001) drC =   /* C spacing ( units of r ) */
(PID.TID 0000.0001)                 7.500000000000000E+02,      /* K =  1 */
(PID.TID 0000.0001)                 1.811000000000000E+03,      /* K =  2 */
(PID.TID 0000.0001)                 2.561000000000000E+03,      /* K =  3 */
(PID.TID 0000.0001)                 3.621000000000000E+03,      /* K =  4 */
(PID.TID 0000.0001)                 5.121000000000000E+03,      /* K =  5 */
(PID.TID 0000.0001)                 6.900000000000000E+03,      /* K =  6 */
(PID.TID 0000.0001)                 8.450000000000000E+03,      /* K =  7 */
(PID.TID 0000.0001)                 9.250000000000000E+03,      /* K =  8 */
(PID.TID 0000.0001)                 9.340000000000000E+03,      /* K =  9 */
(PID.TID 0000.0001)                 8.840000000000000E+03,      /* K = 10 */
(PID.TID 0000.0001)                 7.690000000000000E+03,      /* K = 11 */
(PID.TID 0000.0001)                 6.390000000000000E+03,      /* K = 12 */
(PID.TID 0000.0001)                 5.310000000000000E+03,      /* K = 13 */
(PID.TID 0000.0001)                 4.412000000000000E+03,      /* K = 14 */
(PID.TID 0000.0001)                 3.666000000000000E+03,      /* K = 15 */
(PID.TID 0000.0001)                 3.047000000000000E+03,      /* K = 16 */
(PID.TID 0000.0001)                 2.532000000000000E+03,      /* K = 17 */
(PID.TID 0000.0001)                 2.104000000000000E+03,      /* K = 18 */
(PID.TID 0000.0001)                 1.748000000000000E+03,      /* K = 19 */
(PID.TID 0000.0001)                 1.452000000000000E+03,      /* K = 20 */
(PID.TID 0000.0001)                 1.207000000000000E+03,      /* K = 21 */
(PID.TID 0000.0001)                 1.003000000000000E+03,      /* K = 22 */
(PID.TID 0000.0001)                 8.330000000000000E+02,      /* K = 23 */
(PID.TID 0000.0001)                 6.920000000000000E+02,      /* K = 24 */
(PID.TID 0000.0001)                 5.750000000000000E+02,      /* K = 25 */
(PID.TID 0000.0001)                 4.780000000000000E+02,      /* K = 26 */
(PID.TID 0000.0001)                 2.170000000000000E+02       /* K = 27 */
(PID.TID 0000.0001)     ;
(PID.TID 0000.0001) drF =   /* W spacing ( units of r ) */
(PID.TID 0000.0001)                 1.500000000000000E+03,      /* K =  1 */
(PID.TID 0000.0001)                 2.122000000000000E+03,      /* K =  2 */
(PID.TID 0000.0001)                 3.000000000000000E+03,      /* K =  3 */
(PID.TID 0000.0001)                 4.242000000000000E+03,      /* K =  4 */
(PID.TID 0000.0001)                 6.000000000000000E+03,      /* K =  5 */
(PID.TID 0000.0001)                 7.800000000000000E+03,      /* K =  6 */
(PID.TID 0000.0001)                 9.100000000000000E+03,      /* K =  7 */
(PID.TID 0000.0001)                 9.400000000000000E+03,      /* K =  8 */
(PID.TID 0000.0001)                 9.280000000000000E+03,      /* K =  9 */
(PID.TID 0000.0001)                 8.400000000000000E+03,      /* K = 10 */
(PID.TID 0000.0001)                 6.980000000000000E+03,      /* K = 11 */
(PID.TID 0000.0001)                 5.800000000000000E+03,      /* K = 12 */
(PID.TID 0000.0001)                 4.820000000000000E+03,      /* K = 13 */
(PID.TID 0000.0001)                 4.004000000000000E+03,      /* K = 14 */
(PID.TID 0000.0001)                 3.328000000000000E+03,      /* K = 15 */
(PID.TID 0000.0001)                 2.766000000000000E+03,      /* K = 16 */
(PID.TID 0000.0001)                 2.298000000000000E+03,      /* K = 17 */
(PID.TID 0000.0001)                 1.910000000000000E+03,      /* K = 18 */
(PID.TID 0000.0001)                 1.586000000000000E+03,      /* K = 19 */
(PID.TID 0000.0001)                 1.318000000000000E+03,      /* K = 20 */
(PID.TID 0000.0001)                 1.096000000000000E+03,      /* K = 21 */
(PID.TID 0000.0001)                 9.100000000000000E+02,      /* K = 22 */
(PID.TID 0000.0001)                 7.560000000000000E+02,      /* K = 23 */
(PID.TID 0000.0001)                 6.280000000000000E+02,      /* K = 24 */
(PID.TID 0000.0001)                 5.220000000000000E+02,      /* K = 25 */
(PID.TID 0000.0001)                 4.340000000000000E+02       /* K = 26 */
(PID.TID 0000.0001)     ;
(PID.TID 0000.0001) radius_fromHorizGrid = /* sphere Radius of input horiz. grid */
(PID.TID 0000.0001)                 6.370000000000000E+06
(PID.TID 0000.0001)     ;
(PID.TID 0000.0001) rSphere =  /* Radius ( ignored - cartesian, m - spherical ) */
(PID.TID 0000.0001)                 6.370000000000000E+06
(PID.TID 0000.0001)     ;
(PID.TID 0000.0001) deepAtmosphere = /* Deep/Shallow Atmosphere flag (True/False) */
(PID.TID 0000.0001)                   F
(PID.TID 0000.0001)     ;
(PID.TID 0000.0001) xC =  /* xC(:,1,:,1) : P-point X coord ( deg. or m if cartesian) */
(PID.TID 0000.0001)                -4.439521994760536E+01,      /* I =  1 */
(PID.TID 0000.0001)                -4.295641272275883E+01,      /* I =  2 */
(PID.TID 0000.0001)                -4.122055553388957E+01,      /* I =  3 */
(PID.TID 0000.0001)      . . .
(PID.TID 0000.0001)                 8.070819219728060E+01,      /* I = 46 */
(PID.TID 0000.0001)                 8.439652466417766E+01,      /* I = 47 */
(PID.TID 0000.0001)                 8.812739148696656E+01,      /* I = 48 */
(PID.TID 0000.0001)                 9.187260851303344E+01,      /* I = 49 */
(PID.TID 0000.0001)                 9.560347533582234E+01,      /* I = 50 */
(PID.TID 0000.0001)                 9.929180780271940E+01,      /* I = 51 */
(PID.TID 0000.0001)      . . .
(PID.TID 0000.0001)                 1.321863035748696E+02,      /* I = 94 */
(PID.TID 0000.0001)                 1.337919453120370E+02,      /* I = 95 */
(PID.TID 0000.0001)                 1.350000000000000E+02,      /* I = 96 */
(PID.TID 0000.0001)                 1.356047800523947E+02,      /* I = 97 */
(PID.TID 0000.0001)                 1.358367907661329E+02,      /* I = 98 */
(PID.TID 0000.0001)                 1.359720382181193E+02,      /* I = 99 */
(PID.TID 0000.0001)      . . .
(PID.TID 0000.0001)                -1.336511021209287E+02,      /* I =142 */
(PID.TID 0000.0001)                -1.336469399409420E+02,      /* I =143 */
(PID.TID 0000.0001)                -1.336449032499283E+02,      /* I =144 */
(PID.TID 0000.0001)                -1.336449032499283E+02,      /* I =145 */
(PID.TID 0000.0001)                -1.336469399409420E+02,      /* I =146 */
(PID.TID 0000.0001)                -1.336511021209287E+02,      /* I =147 */
(PID.TID 0000.0001)      . . .
(PID.TID 0000.0001)                 1.378136964251304E+02,      /* I =190 */
(PID.TID 0000.0001)                 1.362080546879630E+02,      /* I =191 */
(PID.TID 0000.0001)                 1.350000000000000E+02       /* I =192 */
(PID.TID 0000.0001)     ;
(PID.TID 0000.0001) yC =  /* yC(1,:,1,:) : P-point Y coord ( deg. or m if cartesian) */
(PID.TID 0000.0001)                -3.497677942598243E+01,      /* J =  1 */
(PID.TID 0000.0001)                -3.374005967394886E+01,      /* J =  2 */
(PID.TID 0000.0001)                -3.220655175667454E+01,      /* J =  3 */
(PID.TID 0000.0001)                -3.045756348838641E+01,      /* J =  4 */
(PID.TID 0000.0001)                -2.853728129852918E+01,      /* J =  5 */
(PID.TID 0000.0001)                -2.647426640173173E+01,      /* J =  6 */
(PID.TID 0000.0001)                -2.428936657094636E+01,      /* J =  7 */
(PID.TID 0000.0001)                -2.199915808312262E+01,      /* J =  8 */
(PID.TID 0000.0001)                -1.961768597440146E+01,      /* J =  9 */
(PID.TID 0000.0001)                -1.715743888281371E+01,      /* J = 10 */
(PID.TID 0000.0001)                -1.462993396899330E+01,      /* J = 11 */
(PID.TID 0000.0001)                -1.204608340464756E+01,      /* J = 12 */
(PID.TID 0000.0001)                -9.416429130284818E+00,      /* J = 13 */
(PID.TID 0000.0001)                -6.751293662992216E+00,      /* J = 14 */
(PID.TID 0000.0001)                -4.060875511835959E+00,      /* J = 15 */
(PID.TID 0000.0001)                -1.355307764409121E+00,      /* J = 16 */
(PID.TID 0000.0001)                 1.355307764409121E+00,      /* J = 17 */
(PID.TID 0000.0001)                 4.060875511835959E+00,      /* J = 18 */
(PID.TID 0000.0001)                 6.751293662992216E+00,      /* J = 19 */
(PID.TID 0000.0001)                 9.416429130284818E+00,      /* J = 20 */
(PID.TID 0000.0001)                 1.204608340464756E+01,      /* J = 21 */
(PID.TID 0000.0001)                 1.462993396899330E+01,      /* J = 22 */
(PID.TID 0000.0001)                 1.715743888281371E+01,      /* J = 23 */
(PID.TID 0000.0001)                 1.961768597440146E+01,      /* J = 24 */
(PID.TID 0000.0001)                 2.199915808312262E+01,      /* J = 25 */
(PID.TID 0000.0001)                 2.428936657094636E+01,      /* J = 26 */
(PID.TID 0000.0001)                 2.647426640173173E+01,      /* J = 27 */
(PID.TID 0000.0001)                 2.853728129852918E+01,      /* J = 28 */
(PID.TID 0000.0001)                 3.045756348838641E+01,      /* J = 29 */
(PID.TID 0000.0001)                 3.220655175667454E+01,      /* J = 30 */
(PID.TID 0000.0001)                 3.374005967394886E+01,      /* J = 31 */
(PID.TID 0000.0001)                 3.497677942598243E+01       /* J = 32 */
(PID.TID 0000.0001)     ;
(PID.TID 0000.0001) rcoord = /* P-point R coordinate (  units of r ) */
(PID.TID 0000.0001)                 9.925000000000000E+04,      /* K =  1 */
(PID.TID 0000.0001)                 9.743900000000000E+04,      /* K =  2 */
(PID.TID 0000.0001)                 9.487800000000000E+04,      /* K =  3 */
(PID.TID 0000.0001)                 9.125700000000000E+04,      /* K =  4 */
(PID.TID 0000.0001)                 8.613600000000000E+04,      /* K =  5 */
(PID.TID 0000.0001)                 7.923600000000000E+04,      /* K =  6 */
(PID.TID 0000.0001)                 7.078600000000000E+04,      /* K =  7 */
(PID.TID 0000.0001)                 6.153600000000000E+04,      /* K =  8 */
(PID.TID 0000.0001)                 5.219600000000000E+04,      /* K =  9 */
(PID.TID 0000.0001)                 4.335600000000000E+04,      /* K = 10 */
(PID.TID 0000.0001)                 3.566600000000000E+04,      /* K = 11 */
(PID.TID 0000.0001)                 2.927600000000000E+04,      /* K = 12 */
(PID.TID 0000.0001)                 2.396600000000000E+04,      /* K = 13 */
(PID.TID 0000.0001)                 1.955400000000000E+04,      /* K = 14 */
(PID.TID 0000.0001)                 1.588800000000000E+04,      /* K = 15 */
(PID.TID 0000.0001)                 1.284100000000000E+04,      /* K = 16 */
(PID.TID 0000.0001)                 1.030900000000000E+04,      /* K = 17 */
(PID.TID 0000.0001)                 8.205000000000000E+03,      /* K = 18 */
(PID.TID 0000.0001)                 6.457000000000000E+03,      /* K = 19 */
(PID.TID 0000.0001)                 5.005000000000000E+03,      /* K = 20 */
(PID.TID 0000.0001)                 3.798000000000000E+03,      /* K = 21 */
(PID.TID 0000.0001)                 2.795000000000000E+03,      /* K = 22 */
(PID.TID 0000.0001)                 1.962000000000000E+03,      /* K = 23 */
(PID.TID 0000.0001)                 1.270000000000000E+03,      /* K = 24 */
(PID.TID 0000.0001)                 6.950000000000000E+02,      /* K = 25 */
(PID.TID 0000.0001)                 2.170000000000000E+02       /* K = 26 */
(PID.TID 0000.0001)     ;
(PID.TID 0000.0001) rF =   /* W-Interf. R coordinate (  units of r ) */
(PID.TID 0000.0001)                 1.000000000000000E+05,      /* K =  1 */
(PID.TID 0000.0001)                 9.850000000000000E+04,      /* K =  2 */
(PID.TID 0000.0001)                 9.637800000000000E+04,      /* K =  3 */
(PID.TID 0000.0001)                 9.337800000000000E+04,      /* K =  4 */
(PID.TID 0000.0001)                 8.913600000000000E+04,      /* K =  5 */
(PID.TID 0000.0001)                 8.313600000000000E+04,      /* K =  6 */
(PID.TID 0000.0001)                 7.533600000000000E+04,      /* K =  7 */
(PID.TID 0000.0001)                 6.623600000000000E+04,      /* K =  8 */
(PID.TID 0000.0001)                 5.683600000000000E+04,      /* K =  9 */
(PID.TID 0000.0001)                 4.755600000000000E+04,      /* K = 10 */
(PID.TID 0000.0001)                 3.915600000000000E+04,      /* K = 11 */
(PID.TID 0000.0001)                 3.217600000000000E+04,      /* K = 12 */
(PID.TID 0000.0001)                 2.637600000000000E+04,      /* K = 13 */
(PID.TID 0000.0001)                 2.155600000000000E+04,      /* K = 14 */
(PID.TID 0000.0001)                 1.755200000000000E+04,      /* K = 15 */
(PID.TID 0000.0001)                 1.422400000000000E+04,      /* K = 16 */
(PID.TID 0000.0001)                 1.145800000000000E+04,      /* K = 17 */
(PID.TID 0000.0001)                 9.160000000000000E+03,      /* K = 18 */
(PID.TID 0000.0001)                 7.250000000000000E+03,      /* K = 19 */
(PID.TID 0000.0001)                 5.664000000000000E+03,      /* K = 20 */
(PID.TID 0000.0001)                 4.346000000000000E+03,      /* K = 21 */
(PID.TID 0000.0001)                 3.250000000000000E+03,      /* K = 22 */
(PID.TID 0000.0001)                 2.340000000000000E+03,      /* K = 23 */
(PID.TID 0000.0001)                 1.584000000000000E+03,      /* K = 24 */
(PID.TID 0000.0001)                 9.560000000000000E+02,      /* K = 25 */
(PID.TID 0000.0001)                 4.340000000000000E+02,      /* K = 26 */
(PID.TID 0000.0001)                 0.000000000000000E+00       /* K = 27 */
(PID.TID 0000.0001)     ;
(PID.TID 0000.0001) deepFacC = /* deep-model grid factor @ cell-Center (-) */
(PID.TID 0000.0001)    26 @  1.000000000000000E+00              /* K =  1: 26 */
(PID.TID 0000.0001)     ;
(PID.TID 0000.0001) deepFacF = /* deep-model grid factor @ W-Interface (-) */
(PID.TID 0000.0001)    27 @  1.000000000000000E+00              /* K =  1: 27 */
(PID.TID 0000.0001)     ;
(PID.TID 0000.0001) rVel2wUnit = /* convert units: rVel [Pa/s] -> wSpeed [m/s] */
(PID.TID 0000.0001)                 8.643418775510203E-02,      /* K =  1 */
(PID.TID 0000.0001)                 8.738714281594749E-02,      /* K =  2 */
(PID.TID 0000.0001)                 8.880228539413697E-02,      /* K =  3 */
(PID.TID 0000.0001)                 9.089242929019774E-02,      /* K =  4 */
(PID.TID 0000.0001)                 9.405693947589525E-02,      /* K =  5 */
(PID.TID 0000.0001)                 9.902423118195600E-02,      /* K =  6 */
(PID.TID 0000.0001)                 1.064768002018922E-01,      /* K =  7 */
(PID.TID 0000.0001)                 1.170463961122242E-01,      /* K =  8 */
(PID.TID 0000.0001)                 1.310066026003325E-01,      /* K =  9 */
(PID.TID 0000.0001)                 1.493938920168942E-01,      /* K = 10 */
(PID.TID 0000.0001)                 1.725289602831169E-01,      /* K = 11 */
(PID.TID 0000.0001)                 2.002474459407474E-01,      /* K = 12 */
(PID.TID 0000.0001)                 2.343614310665001E-01,      /* K = 13 */
(PID.TID 0000.0001)                 2.776669889631084E-01,      /* K = 14 */
(PID.TID 0000.0001)                 3.350138715309565E-01,      /* K = 15 */
(PID.TID 0000.0001)                 4.115302688812186E-01,      /* K = 16 */
(PID.TID 0000.0001)                 5.108941627115936E-01,      /* K = 17 */
(PID.TID 0000.0001)                 6.391247399573892E-01,      /* K = 18 */
(PID.TID 0000.0001)                 8.075182125562436E-01,      /* K = 19 */
(PID.TID 0000.0001)                 1.033823213211920E+00,      /* K = 20 */
(PID.TID 0000.0001)                 1.347773276112891E+00,      /* K = 21 */
(PID.TID 0000.0001)                 1.802919824777024E+00,      /* K = 22 */
(PID.TID 0000.0001)                 2.505981061091403E+00,      /* K = 23 */
(PID.TID 0000.0001)                 3.708894241534945E+00,      /* K = 24 */
(PID.TID 0000.0001)                 6.181002019845741E+00,      /* K = 25 */
(PID.TID 0000.0001)                 1.412649152982495E+01,      /* K = 26 */
(PID.TID 0000.0001)                 1.000000000000000E+00       /* K = 27 */
(PID.TID 0000.0001)     ;
(PID.TID 0000.0001) wUnit2rVel = /* convert units: wSpeed [m/s] -> rVel [Pa/s] */
(PID.TID 0000.0001)                 1.156949612152712E+01,      /* K =  1 */
(PID.TID 0000.0001)                 1.144333099556961E+01,      /* K =  2 */
(PID.TID 0000.0001)                 1.126097144416537E+01,      /* K =  3 */
(PID.TID 0000.0001)                 1.100201642545211E+01,      /* K =  4 */
(PID.TID 0000.0001)                 1.063185774034545E+01,      /* K =  5 */
(PID.TID 0000.0001)                 1.009853838867489E+01,      /* K =  6 */
(PID.TID 0000.0001)                 9.391717238909184E+00,      /* K =  7 */
(PID.TID 0000.0001)                 8.543620591625897E+00,      /* K =  8 */
(PID.TID 0000.0001)                 7.633203061152140E+00,      /* K =  9 */
(PID.TID 0000.0001)                 6.693714090311771E+00,      /* K = 10 */
(PID.TID 0000.0001)                 5.796128362212453E+00,      /* K = 11 */
(PID.TID 0000.0001)                 4.993821495710346E+00,      /* K = 12 */
(PID.TID 0000.0001)                 4.266913695864273E+00,      /* K = 13 */
(PID.TID 0000.0001)                 3.601436395929884E+00,      /* K = 14 */
(PID.TID 0000.0001)                 2.984951027341554E+00,      /* K = 15 */
(PID.TID 0000.0001)                 2.429954916119751E+00,      /* K = 16 */
(PID.TID 0000.0001)                 1.957352565338495E+00,      /* K = 17 */
(PID.TID 0000.0001)                 1.564639791704309E+00,      /* K = 18 */
(PID.TID 0000.0001)                 1.238362162550421E+00,      /* K = 19 */
(PID.TID 0000.0001)                 9.672833683944502E-01,      /* K = 20 */
(PID.TID 0000.0001)                 7.419645557033876E-01,      /* K = 21 */
(PID.TID 0000.0001)                 5.546558345286792E-01,      /* K = 22 */
(PID.TID 0000.0001)                 3.990453142389196E-01,      /* K = 23 */
(PID.TID 0000.0001)                 2.696221393431119E-01,      /* K = 24 */
(PID.TID 0000.0001)                 1.617860658820747E-01,      /* K = 25 */
(PID.TID 0000.0001)                 7.078898521184275E-02,      /* K = 26 */
(PID.TID 0000.0001)                 1.000000000000000E+00       /* K = 27 */
(PID.TID 0000.0001)     ;
(PID.TID 0000.0001) rUnit2z = /* convert units (@ center): dr [Pa] -> dz [m] */
(PID.TID 0000.0001)                 8.690022507486039E-02,      /* K =  1 */
(PID.TID 0000.0001)                 8.808068547455522E-02,      /* K =  2 */
(PID.TID 0000.0001)                 8.983326378246009E-02,      /* K =  3 */
(PID.TID 0000.0001)                 9.242768380871043E-02,      /* K =  4 */
(PID.TID 0000.0001)                 9.645054801144694E-02,      /* K =  5 */
(PID.TID 0000.0001)                 1.025854282314044E-01,      /* K =  6 */
(PID.TID 0000.0001)                 1.114529847731628E-01,      /* K =  7 */
(PID.TID 0000.0001)                 1.235509076126021E-01,      /* K =  8 */
(PID.TID 0000.0001)                 1.394796216857124E-01,      /* K =  9 */
(PID.TID 0000.0001)                 1.599395566816539E-01,      /* K = 10 */
(PID.TID 0000.0001)                 1.849764389706716E-01,      /* K = 11 */
(PID.TID 0000.0001)                 2.154561358371762E-01,      /* K = 12 */
(PID.TID 0000.0001)                 2.533602557066976E-01,      /* K = 13 */
(PID.TID 0000.0001)                 3.023866846160751E-01,      /* K = 14 */
(PID.TID 0000.0001)                 3.687085243210272E-01,      /* K = 15 */
(PID.TID 0000.0001)                 4.561738127412644E-01,      /* K = 16 */
(PID.TID 0000.0001)                 5.682423577166392E-01,      /* K = 17 */
(PID.TID 0000.0001)                 7.139583238101682E-01,      /* K = 18 */
(PID.TID 0000.0001)                 9.071360215780484E-01,      /* K = 19 */
(PID.TID 0000.0001)                 1.170483653593596E+00,      /* K = 20 */
(PID.TID 0000.0001)                 1.542440217110268E+00,      /* K = 21 */
(PID.TID 0000.0001)                 2.095859497977433E+00,      /* K = 22 */
(PID.TID 0000.0001)                 2.985530765084293E+00,      /* K = 23 */
(PID.TID 0000.0001)                 4.612524165100167E+00,      /* K = 24 */
(PID.TID 0000.0001)                 8.428810631113285E+00,      /* K = 25 */
(PID.TID 0000.0001)                 2.699605812731468E+01       /* K = 26 */
(PID.TID 0000.0001)     ;
(PID.TID 0000.0001) z2rUnit = /* convert units (@ center): dz [m] -> dr [Pa] */
(PID.TID 0000.0001)                 1.150745005710339E+01,      /* K =  1 */
(PID.TID 0000.0001)                 1.135322681257834E+01,      /* K =  2 */
(PID.TID 0000.0001)                 1.113173403586445E+01,      /* K =  3 */
(PID.TID 0000.0001)                 1.081926927942513E+01,      /* K =  4 */
(PID.TID 0000.0001)                 1.036800744648250E+01,      /* K =  5 */
(PID.TID 0000.0001)                 9.747973150185382E+00,      /* K =  6 */
(PID.TID 0000.0001)                 8.972393175788627E+00,      /* K =  7 */
(PID.TID 0000.0001)                 8.093829655509557E+00,      /* K =  8 */
(PID.TID 0000.0001)                 7.169506110744171E+00,      /* K =  9 */
(PID.TID 0000.0001)                 6.252361959402047E+00,      /* K = 10 */
(PID.TID 0000.0001)                 5.406093908849398E+00,      /* K = 11 */
(PID.TID 0000.0001)                 4.641315950991141E+00,      /* K = 12 */
(PID.TID 0000.0001)                 3.946948968813994E+00,      /* K = 13 */
(PID.TID 0000.0001)                 3.307023922927191E+00,      /* K = 14 */
(PID.TID 0000.0001)                 2.712169461884531E+00,      /* K = 15 */
(PID.TID 0000.0001)                 2.192146879258031E+00,      /* K = 16 */
(PID.TID 0000.0001)                 1.759812492715761E+00,      /* K = 17 */
(PID.TID 0000.0001)                 1.400641979581271E+00,      /* K = 18 */
(PID.TID 0000.0001)                 1.102370511381971E+00,      /* K = 19 */
(PID.TID 0000.0001)                 8.543476851896392E-01,      /* K = 20 */
(PID.TID 0000.0001)                 6.483233443390632E-01,      /* K = 21 */
(PID.TID 0000.0001)                 4.771312203728494E-01,      /* K = 22 */
(PID.TID 0000.0001)                 3.349488177093918E-01,      /* K = 23 */
(PID.TID 0000.0001)                 2.168010321910766E-01,      /* K = 24 */
(PID.TID 0000.0001)                 1.186407007779601E-01,      /* K = 25 */
(PID.TID 0000.0001)                 3.704244505934729E-02       /* K = 26 */
(PID.TID 0000.0001)     ;
(PID.TID 0000.0001) rotateGrid = /* use rotated grid ( True/False ) */
(PID.TID 0000.0001)                   F
(PID.TID 0000.0001)     ;
(PID.TID 0000.0001) phiEuler = /* Euler angle, rotation about original z-coordinate [rad] */
(PID.TID 0000.0001)                 0.000000000000000E+00
(PID.TID 0000.0001)     ;
(PID.TID 0000.0001) thetaEuler = /* Euler angle, rotation about new x-coordinate [rad] */
(PID.TID 0000.0001)                 0.000000000000000E+00
(PID.TID 0000.0001)     ;
(PID.TID 0000.0001) psiEuler = /* Euler angle, rotation about new z-coordinate [rad] */
(PID.TID 0000.0001)                 0.000000000000000E+00
(PID.TID 0000.0001)     ;
(PID.TID 0000.0001) dxF =  /* dxF(:,1,:,1) ( units: m ) */
(PID.TID 0000.0001)                 1.202082051331828E+05,      /* I =  1 */
(PID.TID 0000.0001)                 1.563594089971120E+05,      /* I =  2 */
(PID.TID 0000.0001)                 1.835530058121492E+05,      /* I =  3 */
(PID.TID 0000.0001)      . . .
(PID.TID 0000.0001)                 2.978501920522794E+05,      /* I = 46 */
(PID.TID 0000.0001)                 3.000967749619962E+05,      /* I = 47 */
(PID.TID 0000.0001)                 3.012190981969055E+05,      /* I = 48 */
(PID.TID 0000.0001)                 3.012190981969055E+05,      /* I = 49 */
(PID.TID 0000.0001)                 3.000967749619962E+05,      /* I = 50 */
(PID.TID 0000.0001)                 2.978501920522794E+05,      /* I = 51 */
(PID.TID 0000.0001)      . . .
(PID.TID 0000.0001)                 1.835530058121492E+05,      /* I = 94 */
(PID.TID 0000.0001)                 1.563594089971120E+05,      /* I = 95 */
(PID.TID 0000.0001)                 1.202082051331828E+05,      /* I = 96 */
(PID.TID 0000.0001)                 1.202082051331828E+05,      /* I = 97 */
(PID.TID 0000.0001)                 1.563594089971120E+05,      /* I = 98 */
(PID.TID 0000.0001)                 1.835530058121492E+05,      /* I = 99 */
(PID.TID 0000.0001)      . . .
(PID.TID 0000.0001)                 2.978501920522794E+05,      /* I =142 */
(PID.TID 0000.0001)                 3.000967749619962E+05,      /* I =143 */
(PID.TID 0000.0001)                 3.012190981969055E+05,      /* I =144 */
(PID.TID 0000.0001)                 3.012190981969055E+05,      /* I =145 */
(PID.TID 0000.0001)                 3.000967749619962E+05,      /* I =146 */
(PID.TID 0000.0001)                 2.978501920522794E+05,      /* I =147 */
(PID.TID 0000.0001)      . . .
(PID.TID 0000.0001)                 1.835530058121492E+05,      /* I =190 */
(PID.TID 0000.0001)                 1.563594089971120E+05,      /* I =191 */
(PID.TID 0000.0001)                 1.202082051331828E+05       /* I =192 */
(PID.TID 0000.0001)     ;
(PID.TID 0000.0001) dxF =  /* dxF(1,:,1,:) ( units: m ) */
(PID.TID 0000.0001)                 1.202082051331828E+05,      /* J =  1 */
(PID.TID 0000.0001)                 1.572908084538706E+05,      /* J =  2 */
(PID.TID 0000.0001)                 1.840412227747703E+05,      /* J =  3 */
(PID.TID 0000.0001)                 2.048868197919576E+05,      /* J =  4 */
(PID.TID 0000.0001)                 2.220405216043041E+05,      /* J =  5 */
(PID.TID 0000.0001)                 2.365892017348392E+05,      /* J =  6 */
(PID.TID 0000.0001)                 2.491250781852558E+05,      /* J =  7 */
(PID.TID 0000.0001)                 2.599949918261881E+05,      /* J =  8 */
(PID.TID 0000.0001)                 2.694110134598581E+05,      /* J =  9 */
(PID.TID 0000.0001)                 2.775055554645015E+05,      /* J = 10 */
(PID.TID 0000.0001)                 2.843615645344775E+05,      /* J = 11 */
(PID.TID 0000.0001)                 2.900303768613599E+05,      /* J = 12 */
(PID.TID 0000.0001)                 2.945429307892709E+05,      /* J = 13 */
(PID.TID 0000.0001)                 2.979171143158405E+05,      /* J = 14 */
(PID.TID 0000.0001)                 3.001626787528886E+05,      /* J = 15 */
(PID.TID 0000.0001)     2 @  3.012844832048790E+05,             /* J = 16: 17 */
(PID.TID 0000.0001)                 3.001626787528886E+05,      /* J = 18 */
(PID.TID 0000.0001)                 2.979171143158405E+05,      /* J = 19 */
(PID.TID 0000.0001)                 2.945429307892709E+05,      /* J = 20 */
(PID.TID 0000.0001)                 2.900303768613599E+05,      /* J = 21 */
(PID.TID 0000.0001)                 2.843615645344775E+05,      /* J = 22 */
(PID.TID 0000.0001)                 2.775055554645015E+05,      /* J = 23 */
(PID.TID 0000.0001)                 2.694110134598581E+05,      /* J = 24 */
(PID.TID 0000.0001)                 2.599949918261881E+05,      /* J = 25 */
(PID.TID 0000.0001)                 2.491250781852558E+05,      /* J = 26 */
(PID.TID 0000.0001)                 2.365892017348392E+05,      /* J = 27 */
(PID.TID 0000.0001)                 2.220405216043041E+05,      /* J = 28 */
(PID.TID 0000.0001)                 2.048868197919576E+05,      /* J = 29 */
(PID.TID 0000.0001)                 1.840412227747703E+05,      /* J = 30 */
(PID.TID 0000.0001)                 1.572908084538706E+05,      /* J = 31 */
(PID.TID 0000.0001)                 1.202082051331828E+05       /* J = 32 */
(PID.TID 0000.0001)     ;
(PID.TID 0000.0001) dyF =  /* dyF(:,1,:,1) ( units: m ) */
(PID.TID 0000.0001)                 1.202082051331828E+05,      /* I =  1 */
(PID.TID 0000.0001)                 1.572908084538706E+05,      /* I =  2 */
(PID.TID 0000.0001)                 1.840412227747703E+05,      /* I =  3 */
(PID.TID 0000.0001)      . . .
(PID.TID 0000.0001)                 2.979171143158405E+05,      /* I = 46 */
(PID.TID 0000.0001)                 3.001626787528886E+05,      /* I = 47 */
(PID.TID 0000.0001)                 3.012844832048790E+05,      /* I = 48 */
(PID.TID 0000.0001)                 3.012844832048790E+05,      /* I = 49 */
(PID.TID 0000.0001)                 3.001626787528886E+05,      /* I = 50 */
(PID.TID 0000.0001)                 2.979171143158405E+05,      /* I = 51 */
(PID.TID 0000.0001)      . . .
(PID.TID 0000.0001)                 1.840412227747703E+05,      /* I = 94 */
(PID.TID 0000.0001)                 1.572908084538706E+05,      /* I = 95 */
(PID.TID 0000.0001)                 1.202082051331828E+05,      /* I = 96 */
(PID.TID 0000.0001)                 1.202082051331828E+05,      /* I = 97 */
(PID.TID 0000.0001)                 1.572908084538706E+05,      /* I = 98 */
(PID.TID 0000.0001)                 1.840412227747703E+05,      /* I = 99 */
(PID.TID 0000.0001)      . . .
(PID.TID 0000.0001)                 2.979171143158405E+05,      /* I =142 */
(PID.TID 0000.0001)                 3.001626787528886E+05,      /* I =143 */
(PID.TID 0000.0001)                 3.012844832048790E+05,      /* I =144 */
(PID.TID 0000.0001)                 3.012844832048790E+05,      /* I =145 */
(PID.TID 0000.0001)                 3.001626787528886E+05,      /* I =146 */
(PID.TID 0000.0001)                 2.979171143158405E+05,      /* I =147 */
(PID.TID 0000.0001)      . . .
(PID.TID 0000.0001)                 1.840412227747703E+05,      /* I =190 */
(PID.TID 0000.0001)                 1.572908084538706E+05,      /* I =191 */
(PID.TID 0000.0001)                 1.202082051331828E+05       /* I =192 */
(PID.TID 0000.0001)     ;
(PID.TID 0000.0001) dyF =  /* dyF(1,:,1,:) ( units: m ) */
(PID.TID 0000.0001)                 1.202082051331828E+05,      /* J =  1 */
(PID.TID 0000.0001)                 1.563594089971120E+05,      /* J =  2 */
(PID.TID 0000.0001)                 1.835530058121492E+05,      /* J =  3 */
(PID.TID 0000.0001)                 2.045883481718707E+05,      /* J =  4 */
(PID.TID 0000.0001)                 2.218350349844185E+05,      /* J =  5 */
(PID.TID 0000.0001)                 2.364352994647058E+05,      /* J =  6 */
(PID.TID 0000.0001)                 2.490022710862746E+05,      /* J =  7 */
(PID.TID 0000.0001)                 2.598919724358304E+05,      /* J =  8 */
(PID.TID 0000.0001)                 2.693210245495156E+05,      /* J =  9 */
(PID.TID 0000.0001)                 2.774243179696503E+05,      /* J = 10 */
(PID.TID 0000.0001)                 2.842862532064524E+05,      /* J = 11 */
(PID.TID 0000.0001)                 2.899590699694043E+05,      /* J = 12 */
(PID.TID 0000.0001)                 2.944742915095688E+05,      /* J = 13 */
(PID.TID 0000.0001)                 2.978501920522794E+05,      /* J = 14 */
(PID.TID 0000.0001)                 3.000967749619962E+05,      /* J = 15 */
(PID.TID 0000.0001)     2 @  3.012190981969055E+05,             /* J = 16: 17 */
(PID.TID 0000.0001)                 3.000967749619962E+05,      /* J = 18 */
(PID.TID 0000.0001)                 2.978501920522794E+05,      /* J = 19 */
(PID.TID 0000.0001)                 2.944742915095688E+05,      /* J = 20 */
(PID.TID 0000.0001)                 2.899590699694043E+05,      /* J = 21 */
(PID.TID 0000.0001)                 2.842862532064524E+05,      /* J = 22 */
(PID.TID 0000.0001)                 2.774243179696503E+05,      /* J = 23 */
(PID.TID 0000.0001)                 2.693210245495156E+05,      /* J = 24 */
(PID.TID 0000.0001)                 2.598919724358304E+05,      /* J = 25 */
(PID.TID 0000.0001)                 2.490022710862746E+05,      /* J = 26 */
(PID.TID 0000.0001)                 2.364352994647058E+05,      /* J = 27 */
(PID.TID 0000.0001)                 2.218350349844185E+05,      /* J = 28 */
(PID.TID 0000.0001)                 2.045883481718707E+05,      /* J = 29 */
(PID.TID 0000.0001)                 1.835530058121492E+05,      /* J = 30 */
(PID.TID 0000.0001)                 1.563594089971120E+05,      /* J = 31 */
(PID.TID 0000.0001)                 1.202082051331828E+05       /* J = 32 */
(PID.TID 0000.0001)     ;
(PID.TID 0000.0001) dxG =  /* dxG(:,1,:,1) ( units: m ) */
(PID.TID 0000.0001)                 1.009837800879055E+05,      /* I =  1 */
(PID.TID 0000.0001)                 1.534505834330338E+05,      /* I =  2 */
(PID.TID 0000.0001)                 1.823321598773926E+05,      /* I =  3 */
(PID.TID 0000.0001)      . . .
(PID.TID 0000.0001)                 2.977867909042096E+05,      /* I = 46 */
(PID.TID 0000.0001)                 3.000380090330854E+05,      /* I = 47 */
(PID.TID 0000.0001)                 3.011625828699101E+05,      /* I = 48 */
(PID.TID 0000.0001)                 3.011625828699101E+05,      /* I = 49 */
(PID.TID 0000.0001)                 3.000380090330854E+05,      /* I = 50 */
(PID.TID 0000.0001)                 2.977867909042096E+05,      /* I = 51 */
(PID.TID 0000.0001)      . . .
(PID.TID 0000.0001)                 1.823321598773926E+05,      /* I = 94 */
(PID.TID 0000.0001)                 1.534505834330338E+05,      /* I = 95 */
(PID.TID 0000.0001)                 1.009837800879055E+05,      /* I = 96 */
(PID.TID 0000.0001)                 1.009837800879055E+05,      /* I = 97 */
(PID.TID 0000.0001)                 1.534505834330338E+05,      /* I = 98 */
(PID.TID 0000.0001)                 1.823321598773926E+05,      /* I = 99 */
(PID.TID 0000.0001)      . . .
(PID.TID 0000.0001)                 2.977867909042096E+05,      /* I =142 */
(PID.TID 0000.0001)                 3.000380090330854E+05,      /* I =143 */
(PID.TID 0000.0001)                 3.011625828699101E+05,      /* I =144 */
(PID.TID 0000.0001)                 3.011625828699101E+05,      /* I =145 */
(PID.TID 0000.0001)                 3.000380090330854E+05,      /* I =146 */
(PID.TID 0000.0001)                 2.977867909042096E+05,      /* I =147 */
(PID.TID 0000.0001)      . . .
(PID.TID 0000.0001)                 1.823321598773926E+05,      /* I =190 */
(PID.TID 0000.0001)                 1.534505834330338E+05,      /* I =191 */
(PID.TID 0000.0001)                 1.009837800879055E+05       /* I =192 */
(PID.TID 0000.0001)     ;
(PID.TID 0000.0001) dxG =  /* dxG(1,:,1,:) ( units: m ) */
(PID.TID 0000.0001)                 1.009837800879055E+05,      /* J =  1 */
(PID.TID 0000.0001)                 1.403701524205398E+05,      /* J =  2 */
(PID.TID 0000.0001)                 1.716197227386011E+05,      /* J =  3 */
(PID.TID 0000.0001)                 1.950254041626018E+05,      /* J =  4 */
(PID.TID 0000.0001)                 2.138410773065497E+05,      /* J =  5 */
(PID.TID 0000.0001)                 2.295958105911512E+05,      /* J =  6 */
(PID.TID 0000.0001)                 2.430829951739083E+05,      /* J =  7 */
(PID.TID 0000.0001)                 2.547526806712889E+05,      /* J =  8 */
(PID.TID 0000.0001)                 2.648750305193301E+05,      /* J =  9 */
(PID.TID 0000.0001)                 2.736173771018112E+05,      /* J = 10 */
(PID.TID 0000.0001)                 2.810845823202647E+05,      /* J = 11 */
(PID.TID 0000.0001)                 2.873420591008078E+05,      /* J = 12 */
(PID.TID 0000.0001)                 2.924298293668651E+05,      /* J = 13 */
(PID.TID 0000.0001)                 2.963715635865306E+05,      /* J = 14 */
(PID.TID 0000.0001)                 2.991805843171258E+05,      /* J = 15 */
(PID.TID 0000.0001)                 3.008638765647886E+05,      /* J = 16 */
(PID.TID 0000.0001)                 3.014246674484008E+05,      /* J = 17 */
(PID.TID 0000.0001)                 3.008638765647886E+05,      /* J = 18 */
(PID.TID 0000.0001)                 2.991805843171258E+05,      /* J = 19 */
(PID.TID 0000.0001)                 2.963715635865306E+05,      /* J = 20 */
(PID.TID 0000.0001)                 2.924298293668651E+05,      /* J = 21 */
(PID.TID 0000.0001)                 2.873420591008078E+05,      /* J = 22 */
(PID.TID 0000.0001)                 2.810845823202647E+05,      /* J = 23 */
(PID.TID 0000.0001)                 2.736173771018112E+05,      /* J = 24 */
(PID.TID 0000.0001)                 2.648750305193301E+05,      /* J = 25 */
(PID.TID 0000.0001)                 2.547526806712889E+05,      /* J = 26 */
(PID.TID 0000.0001)                 2.430829951739083E+05,      /* J = 27 */
(PID.TID 0000.0001)                 2.295958105911512E+05,      /* J = 28 */
(PID.TID 0000.0001)                 2.138410773065497E+05,      /* J = 29 */
(PID.TID 0000.0001)                 1.950254041626018E+05,      /* J = 30 */
(PID.TID 0000.0001)                 1.716197227386011E+05,      /* J = 31 */
(PID.TID 0000.0001)                 1.403701524205398E+05       /* J = 32 */
(PID.TID 0000.0001)     ;
(PID.TID 0000.0001) dyG =  /* dyG(:,1,:,1) ( units: m ) */
(PID.TID 0000.0001)                 1.009837800879055E+05,      /* I =  1 */
(PID.TID 0000.0001)                 1.403701524205398E+05,      /* I =  2 */
(PID.TID 0000.0001)                 1.716197227386011E+05,      /* I =  3 */
(PID.TID 0000.0001)      . . .
(PID.TID 0000.0001)                 2.963715635865306E+05,      /* I = 46 */
(PID.TID 0000.0001)                 2.991805843171258E+05,      /* I = 47 */
(PID.TID 0000.0001)                 3.008638765647886E+05,      /* I = 48 */
(PID.TID 0000.0001)                 3.014246674484008E+05,      /* I = 49 */
(PID.TID 0000.0001)                 3.008638765647886E+05,      /* I = 50 */
(PID.TID 0000.0001)                 2.991805843171258E+05,      /* I = 51 */
(PID.TID 0000.0001)      . . .
(PID.TID 0000.0001)                 1.950254041626018E+05,      /* I = 94 */
(PID.TID 0000.0001)                 1.716197227386011E+05,      /* I = 95 */
(PID.TID 0000.0001)                 1.403701524205398E+05,      /* I = 96 */
(PID.TID 0000.0001)                 1.009837800879055E+05,      /* I = 97 */
(PID.TID 0000.0001)                 1.403701524205398E+05,      /* I = 98 */
(PID.TID 0000.0001)                 1.716197227386011E+05,      /* I = 99 */
(PID.TID 0000.0001)      . . .
(PID.TID 0000.0001)                 2.963715635865306E+05,      /* I =142 */
(PID.TID 0000.0001)                 2.991805843171258E+05,      /* I =143 */
(PID.TID 0000.0001)                 3.008638765647886E+05,      /* I =144 */
(PID.TID 0000.0001)                 3.014246674484008E+05,      /* I =145 */
(PID.TID 0000.0001)                 3.008638765647886E+05,      /* I =146 */
(PID.TID 0000.0001)                 2.991805843171258E+05,      /* I =147 */
(PID.TID 0000.0001)      . . .
(PID.TID 0000.0001)                 1.950254041626018E+05,      /* I =190 */
(PID.TID 0000.0001)                 1.716197227386011E+05,      /* I =191 */
(PID.TID 0000.0001)                 1.403701524205398E+05       /* I =192 */
(PID.TID 0000.0001)     ;
(PID.TID 0000.0001) dyG =  /* dyG(1,:,1,:) ( units: m ) */
(PID.TID 0000.0001)                 1.009837800879055E+05,      /* J =  1 */
(PID.TID 0000.0001)                 1.534505834330338E+05,      /* J =  2 */
(PID.TID 0000.0001)                 1.823321598773926E+05,      /* J =  3 */
(PID.TID 0000.0001)                 2.038999045536999E+05,      /* J =  4 */
(PID.TID 0000.0001)                 2.213884732245467E+05,      /* J =  5 */
(PID.TID 0000.0001)                 2.361211699596122E+05,      /* J =  6 */
(PID.TID 0000.0001)                 2.487693460283865E+05,      /* J =  7 */
(PID.TID 0000.0001)                 2.597126963772147E+05,      /* J =  8 */
(PID.TID 0000.0001)                 2.691790288994575E+05,      /* J =  9 */
(PID.TID 0000.0001)                 2.773091043277394E+05,      /* J = 10 */
(PID.TID 0000.0001)                 2.841906470085516E+05,      /* J = 11 */
(PID.TID 0000.0001)                 2.898778860929753E+05,      /* J = 12 */
(PID.TID 0000.0001)                 2.944035815526416E+05,      /* J = 13 */
(PID.TID 0000.0001)                 2.977867909042096E+05,      /* J = 14 */
(PID.TID 0000.0001)                 3.000380090330854E+05,      /* J = 15 */
(PID.TID 0000.0001)     2 @  3.011625828699101E+05,             /* J = 16: 17 */
(PID.TID 0000.0001)                 3.000380090330854E+05,      /* J = 18 */
(PID.TID 0000.0001)                 2.977867909042096E+05,      /* J = 19 */
(PID.TID 0000.0001)                 2.944035815526416E+05,      /* J = 20 */
(PID.TID 0000.0001)                 2.898778860929753E+05,      /* J = 21 */
(PID.TID 0000.0001)                 2.841906470085516E+05,      /* J = 22 */
(PID.TID 0000.0001)                 2.773091043277394E+05,      /* J = 23 */
(PID.TID 0000.0001)                 2.691790288994575E+05,      /* J = 24 */
(PID.TID 0000.0001)                 2.597126963772147E+05,      /* J = 25 */
(PID.TID 0000.0001)                 2.487693460283865E+05,      /* J = 26 */
(PID.TID 0000.0001)                 2.361211699596122E+05,      /* J = 27 */
(PID.TID 0000.0001)                 2.213884732245467E+05,      /* J = 28 */
(PID.TID 0000.0001)                 2.038999045536999E+05,      /* J = 29 */
(PID.TID 0000.0001)                 1.823321598773926E+05,      /* J = 30 */
(PID.TID 0000.0001)                 1.534505834330338E+05,      /* J = 31 */
(PID.TID 0000.0001)                 1.009837800879055E+05       /* J = 32 */
(PID.TID 0000.0001)     ;
(PID.TID 0000.0001) dxC =  /* dxC(:,1,:,1) ( units: m ) */
(PID.TID 0000.0001)                 1.135373000692312E+05,      /* I =  1 */
(PID.TID 0000.0001)                 1.391343389937106E+05,      /* I =  2 */
(PID.TID 0000.0001)                 1.709574999026266E+05,      /* I =  3 */
(PID.TID 0000.0001)      . . .
(PID.TID 0000.0001)                 2.963038832565530E+05,      /* I = 46 */
(PID.TID 0000.0001)                 2.991142470004740E+05,      /* I = 47 */
(PID.TID 0000.0001)                 3.007982711627968E+05,      /* I = 48 */
(PID.TID 0000.0001)                 3.013593857228136E+05,      /* I = 49 */
(PID.TID 0000.0001)                 3.007982711627968E+05,      /* I = 50 */
(PID.TID 0000.0001)                 2.991142470004740E+05,      /* I = 51 */
(PID.TID 0000.0001)      . . .
(PID.TID 0000.0001)                 1.946503699269892E+05,      /* I = 94 */
(PID.TID 0000.0001)                 1.709574999026266E+05,      /* I = 95 */
(PID.TID 0000.0001)                 1.391343389937106E+05,      /* I = 96 */
(PID.TID 0000.0001)                 1.135373000692312E+05,      /* I = 97 */
(PID.TID 0000.0001)                 1.391343389937106E+05,      /* I = 98 */
(PID.TID 0000.0001)                 1.709574999026266E+05,      /* I = 99 */
(PID.TID 0000.0001)      . . .
(PID.TID 0000.0001)                 2.963038832565530E+05,      /* I =142 */
(PID.TID 0000.0001)                 2.991142470004740E+05,      /* I =143 */
(PID.TID 0000.0001)                 3.007982711627968E+05,      /* I =144 */
(PID.TID 0000.0001)                 3.013593857228136E+05,      /* I =145 */
(PID.TID 0000.0001)                 3.007982711627968E+05,      /* I =146 */
(PID.TID 0000.0001)                 2.991142470004740E+05,      /* I =147 */
(PID.TID 0000.0001)      . . .
(PID.TID 0000.0001)                 1.946503699269892E+05,      /* I =190 */
(PID.TID 0000.0001)                 1.709574999026266E+05,      /* I =191 */
(PID.TID 0000.0001)                 1.391343389937106E+05       /* I =192 */
(PID.TID 0000.0001)     ;
(PID.TID 0000.0001) dxC =  /* dxC(1,:,1,:) ( units: m ) */
(PID.TID 0000.0001)                 1.135373000692312E+05,      /* J =  1 */
(PID.TID 0000.0001)                 1.549545757850771E+05,      /* J =  2 */
(PID.TID 0000.0001)                 1.829777599966776E+05,      /* J =  3 */
(PID.TID 0000.0001)                 2.042717761866506E+05,      /* J =  4 */
(PID.TID 0000.0001)                 2.216367828252819E+05,      /* J =  5 */
(PID.TID 0000.0001)                 2.363029564123586E+05,      /* J =  6 */
(PID.TID 0000.0001)                 2.489113743322025E+05,      /* J =  7 */
(PID.TID 0000.0001)                 2.598293319150326E+05,      /* J =  8 */
(PID.TID 0000.0001)                 2.692787333338535E+05,      /* J =  9 */
(PID.TID 0000.0001)                 2.773972106720365E+05,      /* J = 10 */
(PID.TID 0000.0001)                 2.842706922224557E+05,      /* J = 11 */
(PID.TID 0000.0001)                 2.899523122489403E+05,      /* J = 12 */
(PID.TID 0000.0001)                 2.944741346384699E+05,      /* J = 13 */
(PID.TID 0000.0001)                 2.978547649292580E+05,      /* J = 14 */
(PID.TID 0000.0001)                 3.001044073506459E+05,      /* J = 15 */
(PID.TID 0000.0001)     2 @  3.012281885409289E+05,             /* J = 16: 17 */
(PID.TID 0000.0001)                 3.001044073506459E+05,      /* J = 18 */
(PID.TID 0000.0001)                 2.978547649292580E+05,      /* J = 19 */
(PID.TID 0000.0001)                 2.944741346384699E+05,      /* J = 20 */
(PID.TID 0000.0001)                 2.899523122489403E+05,      /* J = 21 */
(PID.TID 0000.0001)                 2.842706922224557E+05,      /* J = 22 */
(PID.TID 0000.0001)                 2.773972106720365E+05,      /* J = 23 */
(PID.TID 0000.0001)                 2.692787333338535E+05,      /* J = 24 */
(PID.TID 0000.0001)                 2.598293319150326E+05,      /* J = 25 */
(PID.TID 0000.0001)                 2.489113743322025E+05,      /* J = 26 */
(PID.TID 0000.0001)                 2.363029564123586E+05,      /* J = 27 */
(PID.TID 0000.0001)                 2.216367828252819E+05,      /* J = 28 */
(PID.TID 0000.0001)                 2.042717761866506E+05,      /* J = 29 */
(PID.TID 0000.0001)                 1.829777599966776E+05,      /* J = 30 */
(PID.TID 0000.0001)                 1.549545757850771E+05,      /* J = 31 */
(PID.TID 0000.0001)                 1.135373000692312E+05       /* J = 32 */
(PID.TID 0000.0001)     ;
(PID.TID 0000.0001) dyC =  /* dyC(:,1,:,1) ( units: m ) */
(PID.TID 0000.0001)                 1.135373000692312E+05,      /* I =  1 */
(PID.TID 0000.0001)                 1.549545757850771E+05,      /* I =  2 */
(PID.TID 0000.0001)                 1.829777599966776E+05,      /* I =  3 */
(PID.TID 0000.0001)      . . .
(PID.TID 0000.0001)                 2.978547649292580E+05,      /* I = 46 */
(PID.TID 0000.0001)                 3.001044073506459E+05,      /* I = 47 */
(PID.TID 0000.0001)                 3.012281885409289E+05,      /* I = 48 */
(PID.TID 0000.0001)                 3.012281885409289E+05,      /* I = 49 */
(PID.TID 0000.0001)                 3.001044073506459E+05,      /* I = 50 */
(PID.TID 0000.0001)                 2.978547649292580E+05,      /* I = 51 */
(PID.TID 0000.0001)      . . .
(PID.TID 0000.0001)                 1.829777599966776E+05,      /* I = 94 */
(PID.TID 0000.0001)                 1.549545757850771E+05,      /* I = 95 */
(PID.TID 0000.0001)                 1.135373000692312E+05,      /* I = 96 */
(PID.TID 0000.0001)                 1.135373000692312E+05,      /* I = 97 */
(PID.TID 0000.0001)                 1.549545757850771E+05,      /* I = 98 */
(PID.TID 0000.0001)                 1.829777599966776E+05,      /* I = 99 */
(PID.TID 0000.0001)      . . .
(PID.TID 0000.0001)                 2.978547649292580E+05,      /* I =142 */
(PID.TID 0000.0001)                 3.001044073506459E+05,      /* I =143 */
(PID.TID 0000.0001)                 3.012281885409289E+05,      /* I =144 */
(PID.TID 0000.0001)                 3.012281885409289E+05,      /* I =145 */
(PID.TID 0000.0001)                 3.001044073506459E+05,      /* I =146 */
(PID.TID 0000.0001)                 2.978547649292580E+05,      /* I =147 */
(PID.TID 0000.0001)      . . .
(PID.TID 0000.0001)                 1.829777599966776E+05,      /* I =190 */
(PID.TID 0000.0001)                 1.549545757850771E+05,      /* I =191 */
(PID.TID 0000.0001)                 1.135373000692312E+05       /* I =192 */
(PID.TID 0000.0001)     ;
(PID.TID 0000.0001) dyC =  /* dyC(1,:,1,:) ( units: m ) */
(PID.TID 0000.0001)                 1.135373000692312E+05,      /* J =  1 */
(PID.TID 0000.0001)                 1.391343389937106E+05,      /* J =  2 */
(PID.TID 0000.0001)                 1.709574999026266E+05,      /* J =  3 */
(PID.TID 0000.0001)                 1.946503699269892E+05,      /* J =  4 */
(PID.TID 0000.0001)                 2.135964483342134E+05,      /* J =  5 */
(PID.TID 0000.0001)                 2.294195678257306E+05,      /* J =  6 */
(PID.TID 0000.0001)                 2.429464709770498E+05,      /* J =  7 */
(PID.TID 0000.0001)                 2.546408290696998E+05,      /* J =  8 */
(PID.TID 0000.0001)                 2.647791839299727E+05,      /* J =  9 */
(PID.TID 0000.0001)                 2.735321911346108E+05,      /* J = 10 */
(PID.TID 0000.0001)                 2.810065951609633E+05,      /* J = 11 */
(PID.TID 0000.0001)                 2.872689479506990E+05,      /* J = 12 */
(PID.TID 0000.0001)                 2.923599955312932E+05,      /* J = 13 */
(PID.TID 0000.0001)                 2.963038832565530E+05,      /* J = 14 */
(PID.TID 0000.0001)                 2.991142470004740E+05,      /* J = 15 */
(PID.TID 0000.0001)                 3.007982711627968E+05,      /* J = 16 */
(PID.TID 0000.0001)                 3.013593857228136E+05,      /* J = 17 */
(PID.TID 0000.0001)                 3.007982711627968E+05,      /* J = 18 */
(PID.TID 0000.0001)                 2.991142470004740E+05,      /* J = 19 */
(PID.TID 0000.0001)                 2.963038832565530E+05,      /* J = 20 */
(PID.TID 0000.0001)                 2.923599955312932E+05,      /* J = 21 */
(PID.TID 0000.0001)                 2.872689479506990E+05,      /* J = 22 */
(PID.TID 0000.0001)                 2.810065951609633E+05,      /* J = 23 */
(PID.TID 0000.0001)                 2.735321911346108E+05,      /* J = 24 */
(PID.TID 0000.0001)                 2.647791839299727E+05,      /* J = 25 */
(PID.TID 0000.0001)                 2.546408290696998E+05,      /* J = 26 */
(PID.TID 0000.0001)                 2.429464709770498E+05,      /* J = 27 */
(PID.TID 0000.0001)                 2.294195678257306E+05,      /* J = 28 */
(PID.TID 0000.0001)                 2.135964483342134E+05,      /* J = 29 */
(PID.TID 0000.0001)                 1.946503699269892E+05,      /* J = 30 */
(PID.TID 0000.0001)                 1.709574999026266E+05,      /* J = 31 */
(PID.TID 0000.0001)                 1.391343389937106E+05       /* J = 32 */
(PID.TID 0000.0001)     ;
(PID.TID 0000.0001) dxV =  /* dxV(:,1,:,1) ( units: m ) */
(PID.TID 0000.0001)                 8.015229982413632E+04,      /* I =  1 */
(PID.TID 0000.0001)                 1.333130744933864E+05,      /* I =  2 */
(PID.TID 0000.0001)                 1.691744868129062E+05,      /* I =  3 */
(PID.TID 0000.0001)      . . .
(PID.TID 0000.0001)                 2.962371870847826E+05,      /* I = 46 */
(PID.TID 0000.0001)                 2.990534755671296E+05,      /* I = 47 */
(PID.TID 0000.0001)                 3.007409169495504E+05,      /* I = 48 */
(PID.TID 0000.0001)                 3.013031486919771E+05,      /* I = 49 */
(PID.TID 0000.0001)                 3.007409169495504E+05,      /* I = 50 */
(PID.TID 0000.0001)                 2.990534755671296E+05,      /* I = 51 */
(PID.TID 0000.0001)      . . .
(PID.TID 0000.0001)                 1.937548202849060E+05,      /* I = 94 */
(PID.TID 0000.0001)                 1.691744868129062E+05,      /* I = 95 */
(PID.TID 0000.0001)                 1.333130744933864E+05,      /* I = 96 */
(PID.TID 0000.0001)                 8.015229982413632E+04,      /* I = 97 */
(PID.TID 0000.0001)                 1.333130744933864E+05,      /* I = 98 */
(PID.TID 0000.0001)                 1.691744868129062E+05,      /* I = 99 */
(PID.TID 0000.0001)      . . .
(PID.TID 0000.0001)                 2.962371870847826E+05,      /* I =142 */
(PID.TID 0000.0001)                 2.990534755671296E+05,      /* I =143 */
(PID.TID 0000.0001)                 3.007409169495504E+05,      /* I =144 */
(PID.TID 0000.0001)                 3.013031486919771E+05,      /* I =145 */
(PID.TID 0000.0001)                 3.007409169495504E+05,      /* I =146 */
(PID.TID 0000.0001)                 2.990534755671296E+05,      /* I =147 */
(PID.TID 0000.0001)      . . .
(PID.TID 0000.0001)                 1.937548202849060E+05,      /* I =190 */
(PID.TID 0000.0001)                 1.691744868129062E+05,      /* I =191 */
(PID.TID 0000.0001)                 1.333130744933864E+05       /* I =192 */
(PID.TID 0000.0001)     ;
(PID.TID 0000.0001) dxV =  /* dxV(1,:,1,:) ( units: m ) */
(PID.TID 0000.0001)                 8.015229982413632E+04,      /* J =  1 */
(PID.TID 0000.0001)                 1.362652340208229E+05,      /* J =  2 */
(PID.TID 0000.0001)                 1.701080315742101E+05,      /* J =  3 */
(PID.TID 0000.0001)                 1.942331448101592E+05,      /* J =  4 */
(PID.TID 0000.0001)                 2.133486626971531E+05,      /* J =  5 */
(PID.TID 0000.0001)                 2.292584591272880E+05,      /* J =  6 */
(PID.TID 0000.0001)                 2.428369969078989E+05,      /* J =  7 */
(PID.TID 0000.0001)                 2.545652950875683E+05,      /* J =  8 */
(PID.TID 0000.0001)                 2.647274964828301E+05,      /* J =  9 */
(PID.TID 0000.0001)                 2.734980225206389E+05,      /* J = 10 */
(PID.TID 0000.0001)                 2.809856491525217E+05,      /* J = 11 */
(PID.TID 0000.0001)                 2.872580915202295E+05,      /* J = 12 */
(PID.TID 0000.0001)                 2.923567890694162E+05,      /* J = 13 */
(PID.TID 0000.0001)                 2.963063101754721E+05,      /* J = 14 */
(PID.TID 0000.0001)                 2.991205495886625E+05,      /* J = 15 */
(PID.TID 0000.0001)                 3.008068453676764E+05,      /* J = 16 */
(PID.TID 0000.0001)                 3.013686170436881E+05,      /* J = 17 */
(PID.TID 0000.0001)                 3.008068453676764E+05,      /* J = 18 */
(PID.TID 0000.0001)                 2.991205495886625E+05,      /* J = 19 */
(PID.TID 0000.0001)                 2.963063101754721E+05,      /* J = 20 */
(PID.TID 0000.0001)                 2.923567890694162E+05,      /* J = 21 */
(PID.TID 0000.0001)                 2.872580915202295E+05,      /* J = 22 */
(PID.TID 0000.0001)                 2.809856491525217E+05,      /* J = 23 */
(PID.TID 0000.0001)                 2.734980225206389E+05,      /* J = 24 */
(PID.TID 0000.0001)                 2.647274964828301E+05,      /* J = 25 */
(PID.TID 0000.0001)                 2.545652950875683E+05,      /* J = 26 */
(PID.TID 0000.0001)                 2.428369969078989E+05,      /* J = 27 */
(PID.TID 0000.0001)                 2.292584591272880E+05,      /* J = 28 */
(PID.TID 0000.0001)                 2.133486626971531E+05,      /* J = 29 */
(PID.TID 0000.0001)                 1.942331448101592E+05,      /* J = 30 */
(PID.TID 0000.0001)                 1.701080315742101E+05,      /* J = 31 */
(PID.TID 0000.0001)                 1.362652340208229E+05       /* J = 32 */
(PID.TID 0000.0001)     ;
(PID.TID 0000.0001) dyU =  /* dyU(:,1,:,1) ( units: m ) */
(PID.TID 0000.0001)                 8.015229982413632E+04,      /* I =  1 */
(PID.TID 0000.0001)                 1.362652340208229E+05,      /* I =  2 */
(PID.TID 0000.0001)                 1.701080315742101E+05,      /* I =  3 */
(PID.TID 0000.0001)      . . .
(PID.TID 0000.0001)                 2.963063101754721E+05,      /* I = 46 */
(PID.TID 0000.0001)                 2.991205495886625E+05,      /* I = 47 */
(PID.TID 0000.0001)                 3.008068453676764E+05,      /* I = 48 */
(PID.TID 0000.0001)                 3.013686170436881E+05,      /* I = 49 */
(PID.TID 0000.0001)                 3.008068453676764E+05,      /* I = 50 */
(PID.TID 0000.0001)                 2.991205495886625E+05,      /* I = 51 */
(PID.TID 0000.0001)      . . .
(PID.TID 0000.0001)                 1.942331448101592E+05,      /* I = 94 */
(PID.TID 0000.0001)                 1.701080315742101E+05,      /* I = 95 */
(PID.TID 0000.0001)                 1.362652340208229E+05,      /* I = 96 */
(PID.TID 0000.0001)                 8.015229982413632E+04,      /* I = 97 */
(PID.TID 0000.0001)                 1.362652340208229E+05,      /* I = 98 */
(PID.TID 0000.0001)                 1.701080315742101E+05,      /* I = 99 */
(PID.TID 0000.0001)      . . .
(PID.TID 0000.0001)                 2.963063101754721E+05,      /* I =142 */
(PID.TID 0000.0001)                 2.991205495886625E+05,      /* I =143 */
(PID.TID 0000.0001)                 3.008068453676764E+05,      /* I =144 */
(PID.TID 0000.0001)                 3.013686170436881E+05,      /* I =145 */
(PID.TID 0000.0001)                 3.008068453676764E+05,      /* I =146 */
(PID.TID 0000.0001)                 2.991205495886625E+05,      /* I =147 */
(PID.TID 0000.0001)      . . .
(PID.TID 0000.0001)                 1.942331448101592E+05,      /* I =190 */
(PID.TID 0000.0001)                 1.701080315742101E+05,      /* I =191 */
(PID.TID 0000.0001)                 1.362652340208229E+05       /* I =192 */
(PID.TID 0000.0001)     ;
(PID.TID 0000.0001) dyU =  /* dyU(1,:,1,:) ( units: m ) */
(PID.TID 0000.0001)                 8.015229982413632E+04,      /* J =  1 */
(PID.TID 0000.0001)                 1.333130744933864E+05,      /* J =  2 */
(PID.TID 0000.0001)                 1.691744868129062E+05,      /* J =  3 */
(PID.TID 0000.0001)                 1.937548202849060E+05,      /* J =  4 */
(PID.TID 0000.0001)                 2.130490056267208E+05,      /* J =  5 */
(PID.TID 0000.0001)                 2.290479919481738E+05,      /* J =  6 */
(PID.TID 0000.0001)                 2.426774358027003E+05,      /* J =  7 */
(PID.TID 0000.0001)                 2.544372984215561E+05,      /* J =  8 */
(PID.TID 0000.0001)                 2.646201463834826E+05,      /* J =  9 */
(PID.TID 0000.0001)                 2.734046499619031E+05,      /* J = 10 */
(PID.TID 0000.0001)                 2.809019351693761E+05,      /* J = 11 */
(PID.TID 0000.0001)                 2.871811105274442E+05,      /* J = 12 */
(PID.TID 0000.0001)                 2.922844849381675E+05,      /* J = 13 */
(PID.TID 0000.0001)                 2.962371870847826E+05,      /* J = 14 */
(PID.TID 0000.0001)                 2.990534755671296E+05,      /* J = 15 */
(PID.TID 0000.0001)                 3.007409169495504E+05,      /* J = 16 */
(PID.TID 0000.0001)                 3.013031486919771E+05,      /* J = 17 */
(PID.TID 0000.0001)                 3.007409169495504E+05,      /* J = 18 */
(PID.TID 0000.0001)                 2.990534755671296E+05,      /* J = 19 */
(PID.TID 0000.0001)                 2.962371870847826E+05,      /* J = 20 */
(PID.TID 0000.0001)                 2.922844849381675E+05,      /* J = 21 */
(PID.TID 0000.0001)                 2.871811105274442E+05,      /* J = 22 */
(PID.TID 0000.0001)                 2.809019351693761E+05,      /* J = 23 */
(PID.TID 0000.0001)                 2.734046499619031E+05,      /* J = 24 */
(PID.TID 0000.0001)                 2.646201463834826E+05,      /* J = 25 */
(PID.TID 0000.0001)                 2.544372984215561E+05,      /* J = 26 */
(PID.TID 0000.0001)                 2.426774358027003E+05,      /* J = 27 */
(PID.TID 0000.0001)                 2.290479919481738E+05,      /* J = 28 */
(PID.TID 0000.0001)                 2.130490056267208E+05,      /* J = 29 */
(PID.TID 0000.0001)                 1.937548202849060E+05,      /* J = 30 */
(PID.TID 0000.0001)                 1.691744868129062E+05,      /* J = 31 */
(PID.TID 0000.0001)                 1.333130744933864E+05       /* J = 32 */
(PID.TID 0000.0001)     ;
(PID.TID 0000.0001) rA  =  /* rA (:,1,:,1) ( units: m^2 ) */
(PID.TID 0000.0001)                 1.549786705672200E+10,      /* I =  1 */
(PID.TID 0000.0001)                 2.487202533723944E+10,      /* I =  2 */
(PID.TID 0000.0001)                 3.392265412140352E+10,      /* I =  3 */
(PID.TID 0000.0001)      . . .
(PID.TID 0000.0001)                 8.871245486529788E+10,      /* I = 46 */
(PID.TID 0000.0001)                 9.005359372079962E+10,      /* I = 47 */
(PID.TID 0000.0001)                 9.072735712796770E+10,      /* I = 48 */
(PID.TID 0000.0001)                 9.072735712796770E+10,      /* I = 49 */
(PID.TID 0000.0001)                 9.005359372079962E+10,      /* I = 50 */
(PID.TID 0000.0001)                 8.871245486529788E+10,      /* I = 51 */
(PID.TID 0000.0001)      . . .
(PID.TID 0000.0001)                 3.392265412140352E+10,      /* I = 94 */
(PID.TID 0000.0001)                 2.487202533723944E+10,      /* I = 95 */
(PID.TID 0000.0001)                 1.549786705672200E+10,      /* I = 96 */
(PID.TID 0000.0001)                 1.549786705672200E+10,      /* I = 97 */
(PID.TID 0000.0001)                 2.487202533723944E+10,      /* I = 98 */
(PID.TID 0000.0001)                 3.392265412140352E+10,      /* I = 99 */
(PID.TID 0000.0001)      . . .
(PID.TID 0000.0001)                 8.871245486529788E+10,      /* I =142 */
(PID.TID 0000.0001)                 9.005359372079962E+10,      /* I =143 */
(PID.TID 0000.0001)                 9.072735712796770E+10,      /* I =144 */
(PID.TID 0000.0001)                 9.072735712796770E+10,      /* I =145 */
(PID.TID 0000.0001)                 9.005359372079962E+10,      /* I =146 */
(PID.TID 0000.0001)                 8.871245486529788E+10,      /* I =147 */
(PID.TID 0000.0001)      . . .
(PID.TID 0000.0001)                 3.392265412140352E+10,      /* I =190 */
(PID.TID 0000.0001)                 2.487202533723944E+10,      /* I =191 */
(PID.TID 0000.0001)                 1.549786705672200E+10       /* I =192 */
(PID.TID 0000.0001)     ;
(PID.TID 0000.0001) rA  =  /* rA (1,:,1,:) ( units: m^2 ) */
(PID.TID 0000.0001)                 1.549786705672200E+10,      /* J =  1 */
(PID.TID 0000.0001)                 2.487202533723944E+10,      /* J =  2 */
(PID.TID 0000.0001)                 3.392265412140352E+10,      /* J =  3 */
(PID.TID 0000.0001)                 4.200427377313133E+10,      /* J =  4 */
(PID.TID 0000.0001)                 4.931323764668228E+10,      /* J =  5 */
(PID.TID 0000.0001)                 5.597545074899419E+10,      /* J =  6 */
(PID.TID 0000.0001)                 6.205603937791459E+10,      /* J =  7 */
(PID.TID 0000.0001)                 6.758299971934573E+10,      /* J =  8 */
(PID.TID 0000.0001)                 7.256155653843707E+10,      /* J =  9 */
(PID.TID 0000.0001)                 7.698291833687604E+10,      /* J = 10 */
(PID.TID 0000.0001)                 8.083005486272011E+10,      /* J = 11 */
(PID.TID 0000.0001)                 8.408183191745641E+10,      /* J = 12 */
(PID.TID 0000.0001)                 8.671615787312848E+10,      /* J = 13 */
(PID.TID 0000.0001)                 8.871245486529788E+10,      /* J = 14 */
(PID.TID 0000.0001)                 9.005359372079964E+10,      /* J = 15 */
(PID.TID 0000.0001)     2 @  9.072735712796770E+10,             /* J = 16: 17 */
(PID.TID 0000.0001)                 9.005359372079964E+10,      /* J = 18 */
(PID.TID 0000.0001)                 8.871245486529788E+10,      /* J = 19 */
(PID.TID 0000.0001)                 8.671615787312848E+10,      /* J = 20 */
(PID.TID 0000.0001)                 8.408183191745641E+10,      /* J = 21 */
(PID.TID 0000.0001)                 8.083005486272011E+10,      /* J = 22 */
(PID.TID 0000.0001)                 7.698291833687604E+10,      /* J = 23 */
(PID.TID 0000.0001)                 7.256155653843707E+10,      /* J = 24 */
(PID.TID 0000.0001)                 6.758299971934573E+10,      /* J = 25 */
(PID.TID 0000.0001)                 6.205603937791459E+10,      /* J = 26 */
(PID.TID 0000.0001)                 5.597545074899419E+10,      /* J = 27 */
(PID.TID 0000.0001)                 4.931323764668228E+10,      /* J = 28 */
(PID.TID 0000.0001)                 4.200427377313133E+10,      /* J = 29 */
(PID.TID 0000.0001)                 3.392265412140352E+10,      /* J = 30 */
(PID.TID 0000.0001)                 2.487202533723944E+10,      /* J = 31 */
(PID.TID 0000.0001)                 1.549786705672200E+10       /* J = 32 */
(PID.TID 0000.0001)     ;
(PID.TID 0000.0001) rAw =  /* rAw(:,1,:,1) ( units: m^2 ) */
(PID.TID 0000.0001)                 1.146542574196578E+10,      /* I =  1 */
(PID.TID 0000.0001)                 1.953030837147821E+10,      /* I =  2 */
(PID.TID 0000.0001)                 2.933967873337320E+10,      /* I =  3 */
(PID.TID 0000.0001)      . . .
(PID.TID 0000.0001)                 8.781604517750543E+10,      /* I = 46 */
(PID.TID 0000.0001)                 8.948917519517891E+10,      /* I = 47 */
(PID.TID 0000.0001)                 9.049933392602551E+10,      /* I = 48 */
(PID.TID 0000.0001)                 9.083715262395341E+10,      /* I = 49 */
(PID.TID 0000.0001)                 9.049933392602551E+10,      /* I = 50 */
(PID.TID 0000.0001)                 8.948917519517891E+10,      /* I = 51 */
(PID.TID 0000.0001)      . . .
(PID.TID 0000.0001)                 3.796176706541101E+10,      /* I = 94 */
(PID.TID 0000.0001)                 2.933967873337320E+10,      /* I = 95 */
(PID.TID 0000.0001)                 1.953030837147821E+10,      /* I = 96 */
(PID.TID 0000.0001)                 1.146542574196578E+10,      /* I = 97 */
(PID.TID 0000.0001)                 1.953030837147821E+10,      /* I = 98 */
(PID.TID 0000.0001)                 2.933967873337320E+10,      /* I = 99 */
(PID.TID 0000.0001)      . . .
(PID.TID 0000.0001)                 8.781604517750543E+10,      /* I =142 */
(PID.TID 0000.0001)                 8.948917519517891E+10,      /* I =143 */
(PID.TID 0000.0001)                 9.049933392602551E+10,      /* I =144 */
(PID.TID 0000.0001)                 9.083715262395341E+10,      /* I =145 */
(PID.TID 0000.0001)                 9.049933392602551E+10,      /* I =146 */
(PID.TID 0000.0001)                 8.948917519517891E+10,      /* I =147 */
(PID.TID 0000.0001)      . . .
(PID.TID 0000.0001)                 3.796176706541101E+10,      /* I =190 */
(PID.TID 0000.0001)                 2.933967873337320E+10,      /* I =191 */
(PID.TID 0000.0001)                 1.953030837147821E+10       /* I =192 */
(PID.TID 0000.0001)     ;
(PID.TID 0000.0001) rAw =  /* rAw(1,:,1,:) ( units: m^2 ) */
(PID.TID 0000.0001)                 1.146542574196578E+10,      /* J =  1 */
(PID.TID 0000.0001)                 2.377787005983833E+10,      /* J =  2 */
(PID.TID 0000.0001)                 3.336273018972140E+10,      /* J =  3 */
(PID.TID 0000.0001)                 4.165099566747280E+10,      /* J =  4 */
(PID.TID 0000.0001)                 4.906782896008959E+10,      /* J =  5 */
(PID.TID 0000.0001)                 5.579613053300137E+10,      /* J =  6 */
(PID.TID 0000.0001)                 6.192151981164894E+10,      /* J =  7 */
(PID.TID 0000.0001)                 6.748097638954340E+10,      /* J =  8 */
(PID.TID 0000.0001)                 7.248418794208269E+10,      /* J =  9 */
(PID.TID 0000.0001)                 7.692477203447566E+10,      /* J = 10 */
(PID.TID 0000.0001)                 8.078707194826852E+10,      /* J = 11 */
(PID.TID 0000.0001)                 8.405076334249313E+10,      /* J = 12 */
(PID.TID 0000.0001)                 8.669423991218034E+10,      /* J = 13 */
(PID.TID 0000.0001)                 8.869721460381146E+10,      /* J = 14 */
(PID.TID 0000.0001)                 9.004272888354184E+10,      /* J = 15 */
(PID.TID 0000.0001)     2 @  9.071865929421040E+10,             /* J = 16: 17 */
(PID.TID 0000.0001)                 9.004272888354184E+10,      /* J = 18 */
(PID.TID 0000.0001)                 8.869721460381146E+10,      /* J = 19 */
(PID.TID 0000.0001)                 8.669423991218034E+10,      /* J = 20 */
(PID.TID 0000.0001)                 8.405076334249313E+10,      /* J = 21 */
(PID.TID 0000.0001)                 8.078707194826852E+10,      /* J = 22 */
(PID.TID 0000.0001)                 7.692477203447566E+10,      /* J = 23 */
(PID.TID 0000.0001)                 7.248418794208269E+10,      /* J = 24 */
(PID.TID 0000.0001)                 6.748097638954340E+10,      /* J = 25 */
(PID.TID 0000.0001)                 6.192151981164894E+10,      /* J = 26 */
(PID.TID 0000.0001)                 5.579613053300137E+10,      /* J = 27 */
(PID.TID 0000.0001)                 4.906782896008959E+10,      /* J = 28 */
(PID.TID 0000.0001)                 4.165099566747280E+10,      /* J = 29 */
(PID.TID 0000.0001)                 3.336273018972140E+10,      /* J = 30 */
(PID.TID 0000.0001)                 2.377787005983833E+10,      /* J = 31 */
(PID.TID 0000.0001)                 1.146542574196578E+10       /* J = 32 */
(PID.TID 0000.0001)     ;
(PID.TID 0000.0001) rAs =  /* rAs(:,1,:,1) ( units: m^2 ) */
(PID.TID 0000.0001)                 1.146542574196578E+10,      /* I =  1 */
(PID.TID 0000.0001)                 2.377787005983833E+10,      /* I =  2 */
(PID.TID 0000.0001)                 3.336273018972140E+10,      /* I =  3 */
(PID.TID 0000.0001)      . . .
(PID.TID 0000.0001)                 8.869721460381146E+10,      /* I = 46 */
(PID.TID 0000.0001)                 9.004272888354184E+10,      /* I = 47 */
(PID.TID 0000.0001)                 9.071865929421040E+10,      /* I = 48 */
(PID.TID 0000.0001)                 9.071865929421040E+10,      /* I = 49 */
(PID.TID 0000.0001)                 9.004272888354184E+10,      /* I = 50 */
(PID.TID 0000.0001)                 8.869721460381146E+10,      /* I = 51 */
(PID.TID 0000.0001)      . . .
(PID.TID 0000.0001)                 3.336273018972140E+10,      /* I = 94 */
(PID.TID 0000.0001)                 2.377787005983833E+10,      /* I = 95 */
(PID.TID 0000.0001)                 1.146542574196578E+10,      /* I = 96 */
(PID.TID 0000.0001)                 1.146542574196578E+10,      /* I = 97 */
(PID.TID 0000.0001)                 2.377787005983833E+10,      /* I = 98 */
(PID.TID 0000.0001)                 3.336273018972140E+10,      /* I = 99 */
(PID.TID 0000.0001)      . . .
(PID.TID 0000.0001)                 8.869721460381146E+10,      /* I =142 */
(PID.TID 0000.0001)                 9.004272888354184E+10,      /* I =143 */
(PID.TID 0000.0001)                 9.071865929421040E+10,      /* I =144 */
(PID.TID 0000.0001)                 9.071865929421040E+10,      /* I =145 */
(PID.TID 0000.0001)                 9.004272888354184E+10,      /* I =146 */
(PID.TID 0000.0001)                 8.869721460381146E+10,      /* I =147 */
(PID.TID 0000.0001)      . . .
(PID.TID 0000.0001)                 3.336273018972140E+10,      /* I =190 */
(PID.TID 0000.0001)                 2.377787005983833E+10,      /* I =191 */
(PID.TID 0000.0001)                 1.146542574196578E+10       /* I =192 */
(PID.TID 0000.0001)     ;
(PID.TID 0000.0001) rAs =  /* rAs(1,:,1,:) ( units: m^2 ) */
(PID.TID 0000.0001)                 1.146542574196578E+10,      /* J =  1 */
(PID.TID 0000.0001)                 1.953030837147821E+10,      /* J =  2 */
(PID.TID 0000.0001)                 2.933967873337320E+10,      /* J =  3 */
(PID.TID 0000.0001)                 3.796176706541101E+10,      /* J =  4 */
(PID.TID 0000.0001)                 4.567569462064098E+10,      /* J =  5 */
(PID.TID 0000.0001)                 5.267377164042021E+10,      /* J =  6 */
(PID.TID 0000.0001)                 5.905615583203223E+10,      /* J =  7 */
(PID.TID 0000.0001)                 6.487043381386549E+10,      /* J =  8 */
(PID.TID 0000.0001)                 7.013339442433482E+10,      /* J =  9 */
(PID.TID 0000.0001)                 7.484316069116351E+10,      /* J = 10 */
(PID.TID 0000.0001)                 7.898662143005907E+10,      /* J = 11 */
(PID.TID 0000.0001)                 8.254445101987663E+10,      /* J = 12 */
(PID.TID 0000.0001)                 8.549478360691351E+10,      /* J = 13 */
(PID.TID 0000.0001)                 8.781604517750543E+10,      /* J = 14 */
(PID.TID 0000.0001)                 8.948917519517891E+10,      /* J = 15 */
(PID.TID 0000.0001)                 9.049933392602551E+10,      /* J = 16 */
(PID.TID 0000.0001)                 9.083715262395341E+10,      /* J = 17 */
(PID.TID 0000.0001)                 9.049933392602551E+10,      /* J = 18 */
(PID.TID 0000.0001)                 8.948917519517891E+10,      /* J = 19 */
(PID.TID 0000.0001)                 8.781604517750543E+10,      /* J = 20 */
(PID.TID 0000.0001)                 8.549478360691351E+10,      /* J = 21 */
(PID.TID 0000.0001)                 8.254445101987663E+10,      /* J = 22 */
(PID.TID 0000.0001)                 7.898662143005907E+10,      /* J = 23 */
(PID.TID 0000.0001)                 7.484316069116351E+10,      /* J = 24 */
(PID.TID 0000.0001)                 7.013339442433482E+10,      /* J = 25 */
(PID.TID 0000.0001)                 6.487043381386549E+10,      /* J = 26 */
(PID.TID 0000.0001)                 5.905615583203223E+10,      /* J = 27 */
(PID.TID 0000.0001)                 5.267377164042021E+10,      /* J = 28 */
(PID.TID 0000.0001)                 4.567569462064098E+10,      /* J = 29 */
(PID.TID 0000.0001)                 3.796176706541101E+10,      /* J = 30 */
(PID.TID 0000.0001)                 2.933967873337320E+10,      /* J = 31 */
(PID.TID 0000.0001)                 1.953030837147821E+10       /* J = 32 */
(PID.TID 0000.0001)     ;
(PID.TID 0000.0001) globalArea = /* Integrated horizontal Area (m^2) */
(PID.TID 0000.0001)                 5.098642104278459E+14
(PID.TID 0000.0001)     ;
(PID.TID 0000.0001) hasWetCSCorners = /* Domain contains CS corners (True/False) */
(PID.TID 0000.0001)                   T
(PID.TID 0000.0001)     ;
(PID.TID 0000.0001) // =======================================================
(PID.TID 0000.0001) // End of Model config. summary
(PID.TID 0000.0001) // =======================================================
(PID.TID 0000.0001) 
(PID.TID 0000.0001) == Packages configuration : Check & print summary ==
(PID.TID 0000.0001) 
(PID.TID 0000.0001) ATM_PHYS_CHECK: #define ALLOW_ATM_PHYS
(PID.TID 0000.0001) atmPhys_addTendT = /* apply Atm-Phys tendency to Temperature Eq.*/
(PID.TID 0000.0001)                   T
(PID.TID 0000.0001)     ;
(PID.TID 0000.0001) atmPhys_addTendS = /* apply Atm-Phys tendency to Salinity Eq.*/
(PID.TID 0000.0001)                   T
(PID.TID 0000.0001)     ;
(PID.TID 0000.0001) atmPhys_addTendU = /* apply Atm-Phys tendency to U momentum Eq.*/
(PID.TID 0000.0001)                   T
(PID.TID 0000.0001)     ;
(PID.TID 0000.0001) atmPhys_addTendV = /* apply Atm-Phys tendency to V momentum Eq.*/
(PID.TID 0000.0001)                   T
(PID.TID 0000.0001)     ;
(PID.TID 0000.0001) atmPhys_stepSST = /* step forward SST field */
(PID.TID 0000.0001)                   T
(PID.TID 0000.0001)     ;
(PID.TID 0000.0001) atmPhys_dampUVfac = /* U,V danping coefficient (1/s) */
(PID.TID 0000.0001)    20 @  0.000000000000000E+00,             /* K =  1: 20 */
(PID.TID 0000.0001)                 1.446759259259259E-06,      /* K = 21 */
(PID.TID 0000.0001)                 2.893518518518518E-06,      /* K = 22 */
(PID.TID 0000.0001)                 5.787037037037037E-06,      /* K = 23 */
(PID.TID 0000.0001)                 1.157407407407407E-05,      /* K = 24 */
(PID.TID 0000.0001)                 2.314814814814815E-05,      /* K = 25 */
(PID.TID 0000.0001)                 4.629629629629629E-05       /* K = 26 */
(PID.TID 0000.0001)     ;
(PID.TID 0000.0001) atmPhys_sstFile = /* SST input file */
(PID.TID 0000.0001)               'SST_APE_1.bin'
(PID.TID 0000.0001)     ;
(PID.TID 0000.0001) atmPhys_qFlxFile = /* Q-flux input file */
(PID.TID 0000.0001)               ''
(PID.TID 0000.0001)     ;
(PID.TID 0000.0001) atmPhys_mxldFile = /* Mixed-Layer Depth inp. file */
(PID.TID 0000.0001)               'MixedLayerDepth.bin'
(PID.TID 0000.0001)     ;
(PID.TID 0000.0001) atmPhys_albedoFile = /* Albedo input file */
(PID.TID 0000.0001)               'Albedo.bin'
(PID.TID 0000.0001)     ;
(PID.TID 0000.0001) 
(PID.TID 0000.0001) GAD_CHECK: #define ALLOW_GENERIC_ADVDIFF
(PID.TID 0000.0001) // =======================================================
(PID.TID 0000.0001) // Check Model config. (CONFIG_CHECK):
(PID.TID 0000.0001) // CONFIG_CHECK : Normal End
(PID.TID 0000.0001) // =======================================================
(PID.TID 0000.0001) 
(PID.TID 0000.0001)  MDS_READ_FIELD: opening global file: ini_theta_26l.bin
(PID.TID 0000.0001)  MDS_READ_FIELD: opening global file: ini_specQ_26l.bin
(PID.TID 0000.0001) Start initial hydrostatic pressure computation
(PID.TID 0000.0001) Iteration   1, RMS-difference =  3.507436152430E+04
(PID.TID 0000.0001) Iteration   2, RMS-difference =  0.000000000000E+00
(PID.TID 0000.0001) Initial hydrostatic pressure converged.
(PID.TID 0000.0001) 
(PID.TID 0000.0001)  write diagnostics summary to file ioUnit:      6
Iter.Nb:         0 ; Time(s):  0.0000000000000E+00
------------------------------------------------------------------------
2D/3D diagnostics: Number of lists:     2
------------------------------------------------------------------------
listId=    1 ; file name: Surface
 nFlds, nActive,       freq     &     phase        , nLev               
   16  |   16  |  31104000.000000         0.000000 |   1
 levels:   1
 diag# | name   |   ipt  |  iMate | kLev|   count |   mate.C|           
    23 |ETAN    |      1 |      0 |   1 |       0 |
    24 |ETANSQ  |      2 |      0 |   1 |       0 |
   205 |AtPhCnvP|      3 |      0 |   1 |       0 |
    91 |TFLUX   |      4 |      0 |   1 |       0 |
   206 |AtPhLscP|      5 |      0 |   1 |       0 |
   220 |AtPhSens|      6 |      0 |   1 |       0 |
   221 |AtPhEvap|      7 |      0 |   1 |       0 |
   222 |AtPhTauX|      8 |      9 |   1 |       0 |       0 |
   223 |AtPhTauY|      9 |      8 |   1 |       0 |       0 |
   198 |AtPh_SST|     10 |      0 |   1 |       0 |
   213 |AtPhInSR|     11 |      0 |   1 |       0 |
   215 |AtPhOLR |     12 |      0 |   1 |       0 |
   217 |AtPhNSSR|     13 |      0 |   1 |       0 |
   218 |AtPhDSLR|     14 |      0 |   1 |       0 |
   219 |AtPhUSLR|     15 |      0 |   1 |       0 |
   214 |AtPhNTSR|     16 |      0 |   1 |       0 |
------------------------------------------------------------------------
listId=    2 ; file name: Fields
 nFlds, nActive,       freq     &     phase        , nLev               
   28  |   28  |  31104000.000000         0.000000 |  26
 levels:   1   2   3   4   5   6   7   8   9  10  11  12  13  14  15  16  17  18  19  20  21  22  23  24  25
 levels:  26
 diag# | name   |   ipt  |  iMate | kLev|   count |   mate.C|           
    29 |UVEL    |     17 |     43 |  26 |       0 |       0 |
    30 |VVEL    |     43 |     17 |  26 |       0 |       0 |
    31 |WVEL    |     69 |      0 |  26 |       0 |
    26 |THETA   |     95 |      0 |  26 |       0 |
    27 |SALT    |    121 |      0 |  26 |       0 |
    43 |UVELMASS|    147 |    173 |  26 |       0 |       0 |
    44 |VVELMASS|    173 |    147 |  26 |       0 |       0 |
    45 |WVELMASS|    199 |      0 |  26 |       0 |
    34 |UVELSQ  |    225 |    251 |  26 |       0 |       0 |
    35 |VVELSQ  |    251 |    225 |  26 |       0 |       0 |
    36 |WVELSQ  |    277 |      0 |  26 |       0 |
    32 |THETASQ |    303 |      0 |  26 |       0 |
    33 |SALTSQ  |    329 |      0 |  26 |       0 |
    48 |UTHMASS |    355 |    381 |  26 |       0 |       0 |
    49 |VTHMASS |    381 |    355 |  26 |       0 |       0 |
    50 |WTHMASS |    407 |      0 |  26 |       0 |
    51 |USLTMASS|    433 |    459 |  26 |       0 |       0 |
    52 |VSLTMASS|    459 |    433 |  26 |       0 |       0 |
    53 |WSLTMASS|    485 |      0 |  26 |       0 |
    47 |PsiVEL  |   -147 |    173 |  26 |       0 |       0 |
    60 |UVELPHI |    511 |    537 |  26 |       0 |       0 |
    61 |VVELPHI |    537 |    511 |  26 |       0 |       0 |
    69 |PHIHYD  |    563 |      0 |  26 |       0 |
   199 |AtPhdTdt|    589 |      0 |  26 |       0 |
   200 |AtPhdQdt|    615 |      0 |  26 |       0 |
   201 |AtPhdUdt|    641 |    667 |  26 |       0 |       0 |
   202 |AtPhdVdt|    667 |    641 |  26 |       0 |       0 |
   103 |HeatDiss|    693 |      0 |  26 |       0 |
------------------------------------------------------------------------
Global & Regional Statistics diagnostics: Number of lists:     2
------------------------------------------------------------------------
listId=   1 ; file name: dynStDiag
 nFlds, nActive,       freq     &     phase        |                    
   11  |   11  | 311040000.000000         0.000000 |
 Regions:   0
 diag# | name   |   ipt  |  iMate |    Volume   |   mate-Vol. |         
    23 |ETAN    |      1 |      0 | 0.00000E+00 |
    26 |THETA   |      2 |      0 | 0.00000E+00 |
    27 |SALT    |     28 |      0 | 0.00000E+00 |
    28 |RELHUM  |     54 |      0 | 0.00000E+00 |
    37 |UE_VEL_C|     80 |      0 | 0.00000E+00 |
    38 |VN_VEL_C|    106 |      0 | 0.00000E+00 |
    31 |WVEL    |    132 |      0 | 0.00000E+00 |
   199 |AtPhdTdt|    158 |      0 | 0.00000E+00 |
   200 |AtPhdQdt|    184 |      0 | 0.00000E+00 |
   201 |AtPhdUdt|    210 |      0 | 0.00000E+00 |
   202 |AtPhdVdt|    236 |      0 | 0.00000E+00 |
------------------------------------------------------------------------
listId=   2 ; file name: diffStDiag
 nFlds, nActive,       freq     &     phase        |                    
    7  |    7  | 311040000.000000         0.000000 |
 Regions:   0
 diag# | name   |   ipt  |  iMate |    Volume   |   mate-Vol. |         
   203 |AtPhDifT|    262 |      0 | 0.00000E+00 |
   204 |AtPhDifM|    288 |      0 | 0.00000E+00 |
   235 |AtPhDisH|    314 |      0 | 0.00000E+00 |
   233 |AtPhdtTg|    340 |      0 | 0.00000E+00 |
   234 |AtPhdtQg|    366 |      0 | 0.00000E+00 |
   197 |SHAP_dKE|    392 |      0 | 0.00000E+00 |
   102 |MoistCor|    418 |      0 | 0.00000E+00 |
------------------------------------------------------------------------
(PID.TID 0000.0001)  MDS_READ_FIELD: opening global file: SST_APE_1.bin
(PID.TID 0000.0001) // =======================================================
(PID.TID 0000.0001) // Model current state
(PID.TID 0000.0001) // =======================================================
(PID.TID 0000.0001) 
(PID.TID 0000.0001) // =======================================================
(PID.TID 0000.0001) // Begin MONITOR dynamic field statistics
(PID.TID 0000.0001) // =======================================================
(PID.TID 0000.0001) %MON time_tsnumber                =                     0
(PID.TID 0000.0001) %MON time_secondsf                =   0.0000000000000E+00
(PID.TID 0000.0001) %MON dynstat_eta_max              =   0.0000000000000E+00
(PID.TID 0000.0001) %MON dynstat_eta_min              =   0.0000000000000E+00
(PID.TID 0000.0001) %MON dynstat_eta_mean             =   0.0000000000000E+00
(PID.TID 0000.0001) %MON dynstat_eta_sd               =   0.0000000000000E+00
(PID.TID 0000.0001) %MON dynstat_eta_del2             =   0.0000000000000E+00
(PID.TID 0000.0001) %MON dynstat_uvel_max             =   0.0000000000000E+00
(PID.TID 0000.0001) %MON dynstat_uvel_min             =   0.0000000000000E+00
(PID.TID 0000.0001) %MON dynstat_uvel_mean            =   0.0000000000000E+00
(PID.TID 0000.0001) %MON dynstat_uvel_sd              =   0.0000000000000E+00
(PID.TID 0000.0001) %MON dynstat_uvel_del2            =   0.0000000000000E+00
(PID.TID 0000.0001) %MON dynstat_vvel_max             =   0.0000000000000E+00
(PID.TID 0000.0001) %MON dynstat_vvel_min             =   0.0000000000000E+00
(PID.TID 0000.0001) %MON dynstat_vvel_mean            =   0.0000000000000E+00
(PID.TID 0000.0001) %MON dynstat_vvel_sd              =   0.0000000000000E+00
(PID.TID 0000.0001) %MON dynstat_vvel_del2            =   0.0000000000000E+00
(PID.TID 0000.0001) %MON dynstat_wvel_max             =   0.0000000000000E+00
(PID.TID 0000.0001) %MON dynstat_wvel_min             =   0.0000000000000E+00
(PID.TID 0000.0001) %MON dynstat_wvel_mean            =   0.0000000000000E+00
(PID.TID 0000.0001) %MON dynstat_wvel_sd              =   0.0000000000000E+00
(PID.TID 0000.0001) %MON dynstat_wvel_del2            =   0.0000000000000E+00
(PID.TID 0000.0001) %MON dynstat_theta_max            =   1.1535634846852E+03
(PID.TID 0000.0001) %MON dynstat_theta_min            =   2.5507757432656E+02
(PID.TID 0000.0001) %MON dynstat_theta_mean           =   3.2787660662240E+02
(PID.TID 0000.0001) %MON dynstat_theta_sd             =   9.0371224687477E+01
(PID.TID 0000.0001) %MON dynstat_theta_del2           =   5.5192238657586E-04
(PID.TID 0000.0001) %MON dynstat_salt_max             =   2.0315162198281E-02
(PID.TID 0000.0001) %MON dynstat_salt_min             =   0.0000000000000E+00
(PID.TID 0000.0001) %MON dynstat_salt_mean            =   1.7953625902710E-03
(PID.TID 0000.0001) %MON dynstat_salt_sd              =   3.7984703449388E-03
(PID.TID 0000.0001) %MON dynstat_salt_del2            =   1.3625554215944E-07
(PID.TID 0000.0001) %MON trAdv_CFL_u_max              =   0.0000000000000E+00
(PID.TID 0000.0001) %MON trAdv_CFL_v_max              =   0.0000000000000E+00
(PID.TID 0000.0001) %MON trAdv_CFL_w_max              =   0.0000000000000E+00
(PID.TID 0000.0001) %MON advcfl_uvel_max              =   0.0000000000000E+00
(PID.TID 0000.0001) %MON advcfl_vvel_max              =   0.0000000000000E+00
(PID.TID 0000.0001) %MON advcfl_wvel_max              =   0.0000000000000E+00
(PID.TID 0000.0001) %MON advcfl_W_hf_max              =   0.0000000000000E+00
(PID.TID 0000.0001) %MON am_eta_mean                  =   0.0000000000000E+00
(PID.TID 0000.0001) %MON am_uZo_mean                  =   0.0000000000000E+00
(PID.TID 0000.0001) %MON am_tot_mean                  =   0.0000000000000E+00
(PID.TID 0000.0001) %MON pe_b_mean                    =   0.0000000000000E+00
(PID.TID 0000.0001) %MON ke_max                       =   0.0000000000000E+00
(PID.TID 0000.0001) %MON ke_mean                      =   0.0000000000000E+00
(PID.TID 0000.0001) %MON ke_vol                       =   5.0986421042785E+19
(PID.TID 0000.0001) %MON vort_r_min                   =   0.0000000000000E+00
(PID.TID 0000.0001) %MON vort_r_max                   =   0.0000000000000E+00
(PID.TID 0000.0001) %MON vort_a_mean                  =  -2.4513551737851E-21
(PID.TID 0000.0001) %MON vort_a_sd                    =   8.4202189509969E-05
(PID.TID 0000.0001) %MON vort_p_mean                  =  -2.4513551737851E-21
(PID.TID 0000.0001) %MON vort_p_sd                    =   8.4202189509969E-05
(PID.TID 0000.0001) %MON surfExpan_theta_mean         =   0.0000000000000E+00
(PID.TID 0000.0001) %MON surfExpan_salt_mean          =   0.0000000000000E+00
(PID.TID 0000.0001) %MON surfExpan_Heat_mean          =   0.0000000000000E+00
(PID.TID 0000.0001) %MON En_Budget_T2PE_mean          =   0.0000000000000E+00
(PID.TID 0000.0001) // =======================================================
(PID.TID 0000.0001) // End MONITOR dynamic field statistics
(PID.TID 0000.0001) // =======================================================
(PID.TID 0000.0001)   Exporting atmospheric surf fluxes at iter=         0
(PID.TID 0000.0001)   Importing  oceanic surface fields at iter=         0
(PID.TID 0000.0001) SURFACE_FLUX_INIT: opening data.atm_gray
(PID.TID 0000.0001)  OPEN_COPY_DATA_FILE: opening file data.atm_gray
(PID.TID 0000.0001) // =======================================================
(PID.TID 0000.0001) // Parameter file "data.atm_gray"
(PID.TID 0000.0001) // =======================================================
(PID.TID 0000.0001) >
(PID.TID 0000.0001) > &atmosphere_nml
(PID.TID 0000.0001) >    turb = .TRUE.,
(PID.TID 0000.0001) >    ldry_convection = .false.,
(PID.TID 0000.0001) >    lwet_convection = .TRUE.,
(PID.TID 0000.0001) >    do_virtual = .false.,
(PID.TID 0000.0001) >    two_stream = .true.,
(PID.TID 0000.0001) >    mixed_layer_bc = .false.,
(PID.TID 0000.0001) >    roughness_heat = 0.05,
(PID.TID 0000.0001) >    roughness_moist = 0.05,
(PID.TID 0000.0001) >    roughness_mom = 0.05,
(PID.TID 0000.0001) > /
(PID.TID 0000.0001) >
(PID.TID 0000.0001) > &radiation_nml
(PID.TID 0000.0001) >  select_incSW  = 1,
(PID.TID 0000.0001) >  solar_constant= 1365.,
(PID.TID 0000.0001) ># yearLength=
(PID.TID 0000.0001) ># yearPhase =
(PID.TID 0000.0001) ># obliquity =
(PID.TID 0000.0001) >  del_sol=1.,
(PID.TID 0000.0001) ># ir_tau_eq=
(PID.TID 0000.0001) ># ir_tau_pole=
(PID.TID 0000.0001) ># atm_abs= 0.22,
(PID.TID 0000.0001) ># value that Ruth is using as default:
(PID.TID 0000.0001) ># atm_abs= 0.2486,
(PID.TID 0000.0001) ># sw_diff=
(PID.TID 0000.0001) ># linear_tau=
(PID.TID 0000.0001) ># del_sw=
(PID.TID 0000.0001) >  albedo_value=0.3,
(PID.TID 0000.0001) ># window=
(PID.TID 0000.0001) ># wv_exponent=
(PID.TID 0000.0001) ># solar_exponent=
(PID.TID 0000.0001) >  wv_exponent=0.,
(PID.TID 0000.0001) >  ir_tau_co2 = 0.8678,
(PID.TID 0000.0001) > /
(PID.TID 0000.0001) >
(PID.TID 0000.0001) > &lscale_cond_nml
(PID.TID 0000.0001) ># hc =
(PID.TID 0000.0001) ># do_evap=
(PID.TID 0000.0001) > /
(PID.TID 0000.0001) >
(PID.TID 0000.0001) > &dargan_bettsmiller_nml
(PID.TID 0000.0001) >#-- default:
(PID.TID 0000.0001) >#   tau_bm = 7200.,
(PID.TID 0000.0001) >#   rhbm   = 0.8,
(PID.TID 0000.0001) >#   do_virtual   = .FALSE.,
(PID.TID 0000.0001) >#   do_shallower = .FALSE.,
(PID.TID 0000.0001) >#   do_changeqref= .FALSE.,
(PID.TID 0000.0001) >#   do_envsat    = .FALSE.,
(PID.TID 0000.0001) >#   do_taucape   = .FALSE.,
(PID.TID 0000.0001) >#     capetaubm  = 900.,
(PID.TID 0000.0001) >#     tau_min    = 2400.,
(PID.TID 0000.0001) >#   do_bm_shift  = .FALSE.,
(PID.TID 0000.0001) >#-- POG choice:
(PID.TID 0000.0001) >#  rhbm = 0.7,
(PID.TID 0000.0001) >   do_virtual= .TRUE.,
(PID.TID 0000.0001) >   do_shallower= .TRUE.,
(PID.TID 0000.0001) > /
(PID.TID 0000.0001) >
(PID.TID 0000.0001) > &surface_flux_nml
(PID.TID 0000.0001) > /
(PID.TID 0000.0001) >
(PID.TID 0000.0001) > &vert_turb_driver_nml
(PID.TID 0000.0001) >#  do_shallow_conv, do_mellor_yamada,
(PID.TID 0000.0001) >#  gust_scheme, constant_gust, use_tau,
(PID.TID 0000.0001) >#  do_molecular_diffusion
(PID.TID 0000.0001) >  do_mellor_yamada=.FALSE.,
(PID.TID 0000.0001) > /
(PID.TID 0000.0001) >
(PID.TID 0000.0001) > &diffusivity_nml
(PID.TID 0000.0001) >#  fixed_depth, depth_0, frac_inner,
(PID.TID 0000.0001) >#  rich_crit_pbl, entr_ratio, parcel_buoy,
(PID.TID 0000.0001) >#  znom, free_atm_diff, free_atm_skyhi_diff,
(PID.TID 0000.0001) >#  pbl_mcm, rich_crit_diff, mix_len, rich_prandtl,
(PID.TID 0000.0001) >#  background_m, background_t, ampns, ampns_max,
(PID.TID 0000.0001) >#  do_virtual_non_mcm
(PID.TID 0000.0001) > /
(PID.TID 0000.0001) >
(PID.TID 0000.0001) > &monin_obukhov_nml
(PID.TID 0000.0001) > /
(PID.TID 0000.0001) >
(PID.TID 0000.0001) > &my25_turb_nml
(PID.TID 0000.0001) > /
(PID.TID 0000.0001) >
(PID.TID 0000.0001) > &shallow_conv_nml
(PID.TID 0000.0001) > /
(PID.TID 0000.0001) >
(PID.TID 0000.0001) > &mixed_layer_nml
(PID.TID 0000.0001) ># evaporation, qflux_amp, depth, qflux_width
(PID.TID 0000.0001) >  depth=5000.,
(PID.TID 0000.0001) > /
(PID.TID 0000.0001) 
(PID.TID 0000.0001) SURFACE_FLUX_INIT: finished reading data.atm_gray
(PID.TID 0000.0001) MONIN_OBUKHOV_INIT: opening data.atm_gray
(PID.TID 0000.0001)  OPEN_COPY_DATA_FILE: opening file data.atm_gray
(PID.TID 0000.0001) // =======================================================
(PID.TID 0000.0001) // Parameter file "data.atm_gray"
(PID.TID 0000.0001) // =======================================================
(PID.TID 0000.0001) >
(PID.TID 0000.0001) > &atmosphere_nml
(PID.TID 0000.0001) >    turb = .TRUE.,
(PID.TID 0000.0001) >    ldry_convection = .false.,
(PID.TID 0000.0001) >    lwet_convection = .TRUE.,
(PID.TID 0000.0001) >    do_virtual = .false.,
(PID.TID 0000.0001) >    two_stream = .true.,
(PID.TID 0000.0001) >    mixed_layer_bc = .false.,
(PID.TID 0000.0001) >    roughness_heat = 0.05,
(PID.TID 0000.0001) >    roughness_moist = 0.05,
(PID.TID 0000.0001) >    roughness_mom = 0.05,
(PID.TID 0000.0001) > /
(PID.TID 0000.0001) >
(PID.TID 0000.0001) > &radiation_nml
(PID.TID 0000.0001) >  select_incSW  = 1,
(PID.TID 0000.0001) >  solar_constant= 1365.,
(PID.TID 0000.0001) ># yearLength=
(PID.TID 0000.0001) ># yearPhase =
(PID.TID 0000.0001) ># obliquity =
(PID.TID 0000.0001) >  del_sol=1.,
(PID.TID 0000.0001) ># ir_tau_eq=
(PID.TID 0000.0001) ># ir_tau_pole=
(PID.TID 0000.0001) ># atm_abs= 0.22,
(PID.TID 0000.0001) ># value that Ruth is using as default:
(PID.TID 0000.0001) ># atm_abs= 0.2486,
(PID.TID 0000.0001) ># sw_diff=
(PID.TID 0000.0001) ># linear_tau=
(PID.TID 0000.0001) ># del_sw=
(PID.TID 0000.0001) >  albedo_value=0.3,
(PID.TID 0000.0001) ># window=
(PID.TID 0000.0001) ># wv_exponent=
(PID.TID 0000.0001) ># solar_exponent=
(PID.TID 0000.0001) >  wv_exponent=0.,
(PID.TID 0000.0001) >  ir_tau_co2 = 0.8678,
(PID.TID 0000.0001) > /
(PID.TID 0000.0001) >
(PID.TID 0000.0001) > &lscale_cond_nml
(PID.TID 0000.0001) ># hc =
(PID.TID 0000.0001) ># do_evap=
(PID.TID 0000.0001) > /
(PID.TID 0000.0001) >
(PID.TID 0000.0001) > &dargan_bettsmiller_nml
(PID.TID 0000.0001) >#-- default:
(PID.TID 0000.0001) >#   tau_bm = 7200.,
(PID.TID 0000.0001) >#   rhbm   = 0.8,
(PID.TID 0000.0001) >#   do_virtual   = .FALSE.,
(PID.TID 0000.0001) >#   do_shallower = .FALSE.,
(PID.TID 0000.0001) >#   do_changeqref= .FALSE.,
(PID.TID 0000.0001) >#   do_envsat    = .FALSE.,
(PID.TID 0000.0001) >#   do_taucape   = .FALSE.,
(PID.TID 0000.0001) >#     capetaubm  = 900.,
(PID.TID 0000.0001) >#     tau_min    = 2400.,
(PID.TID 0000.0001) >#   do_bm_shift  = .FALSE.,
(PID.TID 0000.0001) >#-- POG choice:
(PID.TID 0000.0001) >#  rhbm = 0.7,
(PID.TID 0000.0001) >   do_virtual= .TRUE.,
(PID.TID 0000.0001) >   do_shallower= .TRUE.,
(PID.TID 0000.0001) > /
(PID.TID 0000.0001) >
(PID.TID 0000.0001) > &surface_flux_nml
(PID.TID 0000.0001) > /
(PID.TID 0000.0001) >
(PID.TID 0000.0001) > &vert_turb_driver_nml
(PID.TID 0000.0001) >#  do_shallow_conv, do_mellor_yamada,
(PID.TID 0000.0001) >#  gust_scheme, constant_gust, use_tau,
(PID.TID 0000.0001) >#  do_molecular_diffusion
(PID.TID 0000.0001) >  do_mellor_yamada=.FALSE.,
(PID.TID 0000.0001) > /
(PID.TID 0000.0001) >
(PID.TID 0000.0001) > &diffusivity_nml
(PID.TID 0000.0001) >#  fixed_depth, depth_0, frac_inner,
(PID.TID 0000.0001) >#  rich_crit_pbl, entr_ratio, parcel_buoy,
(PID.TID 0000.0001) >#  znom, free_atm_diff, free_atm_skyhi_diff,
(PID.TID 0000.0001) >#  pbl_mcm, rich_crit_diff, mix_len, rich_prandtl,
(PID.TID 0000.0001) >#  background_m, background_t, ampns, ampns_max,
(PID.TID 0000.0001) >#  do_virtual_non_mcm
(PID.TID 0000.0001) > /
(PID.TID 0000.0001) >
(PID.TID 0000.0001) > &monin_obukhov_nml
(PID.TID 0000.0001) > /
(PID.TID 0000.0001) >
(PID.TID 0000.0001) > &my25_turb_nml
(PID.TID 0000.0001) > /
(PID.TID 0000.0001) >
(PID.TID 0000.0001) > &shallow_conv_nml
(PID.TID 0000.0001) > /
(PID.TID 0000.0001) >
(PID.TID 0000.0001) > &mixed_layer_nml
(PID.TID 0000.0001) ># evaporation, qflux_amp, depth, qflux_width
(PID.TID 0000.0001) >  depth=5000.,
(PID.TID 0000.0001) > /
(PID.TID 0000.0001) 
(PID.TID 0000.0001) MONIN_OBUKHOV_INIT: finished reading data.atm_gray
(PID.TID 0000.0001) DIFFUSIVITY_INIT: opening data.atm_gray
(PID.TID 0000.0001)  OPEN_COPY_DATA_FILE: opening file data.atm_gray
(PID.TID 0000.0001) // =======================================================
(PID.TID 0000.0001) // Parameter file "data.atm_gray"
(PID.TID 0000.0001) // =======================================================
(PID.TID 0000.0001) >
(PID.TID 0000.0001) > &atmosphere_nml
(PID.TID 0000.0001) >    turb = .TRUE.,
(PID.TID 0000.0001) >    ldry_convection = .false.,
(PID.TID 0000.0001) >    lwet_convection = .TRUE.,
(PID.TID 0000.0001) >    do_virtual = .false.,
(PID.TID 0000.0001) >    two_stream = .true.,
(PID.TID 0000.0001) >    mixed_layer_bc = .false.,
(PID.TID 0000.0001) >    roughness_heat = 0.05,
(PID.TID 0000.0001) >    roughness_moist = 0.05,
(PID.TID 0000.0001) >    roughness_mom = 0.05,
(PID.TID 0000.0001) > /
(PID.TID 0000.0001) >
(PID.TID 0000.0001) > &radiation_nml
(PID.TID 0000.0001) >  select_incSW  = 1,
(PID.TID 0000.0001) >  solar_constant= 1365.,
(PID.TID 0000.0001) ># yearLength=
(PID.TID 0000.0001) ># yearPhase =
(PID.TID 0000.0001) ># obliquity =
(PID.TID 0000.0001) >  del_sol=1.,
(PID.TID 0000.0001) ># ir_tau_eq=
(PID.TID 0000.0001) ># ir_tau_pole=
(PID.TID 0000.0001) ># atm_abs= 0.22,
(PID.TID 0000.0001) ># value that Ruth is using as default:
(PID.TID 0000.0001) ># atm_abs= 0.2486,
(PID.TID 0000.0001) ># sw_diff=
(PID.TID 0000.0001) ># linear_tau=
(PID.TID 0000.0001) ># del_sw=
(PID.TID 0000.0001) >  albedo_value=0.3,
(PID.TID 0000.0001) ># window=
(PID.TID 0000.0001) ># wv_exponent=
(PID.TID 0000.0001) ># solar_exponent=
(PID.TID 0000.0001) >  wv_exponent=0.,
(PID.TID 0000.0001) >  ir_tau_co2 = 0.8678,
(PID.TID 0000.0001) > /
(PID.TID 0000.0001) >
(PID.TID 0000.0001) > &lscale_cond_nml
(PID.TID 0000.0001) ># hc =
(PID.TID 0000.0001) ># do_evap=
(PID.TID 0000.0001) > /
(PID.TID 0000.0001) >
(PID.TID 0000.0001) > &dargan_bettsmiller_nml
(PID.TID 0000.0001) >#-- default:
(PID.TID 0000.0001) >#   tau_bm = 7200.,
(PID.TID 0000.0001) >#   rhbm   = 0.8,
(PID.TID 0000.0001) >#   do_virtual   = .FALSE.,
(PID.TID 0000.0001) >#   do_shallower = .FALSE.,
(PID.TID 0000.0001) >#   do_changeqref= .FALSE.,
(PID.TID 0000.0001) >#   do_envsat    = .FALSE.,
(PID.TID 0000.0001) >#   do_taucape   = .FALSE.,
(PID.TID 0000.0001) >#     capetaubm  = 900.,
(PID.TID 0000.0001) >#     tau_min    = 2400.,
(PID.TID 0000.0001) >#   do_bm_shift  = .FALSE.,
(PID.TID 0000.0001) >#-- POG choice:
(PID.TID 0000.0001) >#  rhbm = 0.7,
(PID.TID 0000.0001) >   do_virtual= .TRUE.,
(PID.TID 0000.0001) >   do_shallower= .TRUE.,
(PID.TID 0000.0001) > /
(PID.TID 0000.0001) >
(PID.TID 0000.0001) > &surface_flux_nml
(PID.TID 0000.0001) > /
(PID.TID 0000.0001) >
(PID.TID 0000.0001) > &vert_turb_driver_nml
(PID.TID 0000.0001) >#  do_shallow_conv, do_mellor_yamada,
(PID.TID 0000.0001) >#  gust_scheme, constant_gust, use_tau,
(PID.TID 0000.0001) >#  do_molecular_diffusion
(PID.TID 0000.0001) >  do_mellor_yamada=.FALSE.,
(PID.TID 0000.0001) > /
(PID.TID 0000.0001) >
(PID.TID 0000.0001) > &diffusivity_nml
(PID.TID 0000.0001) >#  fixed_depth, depth_0, frac_inner,
(PID.TID 0000.0001) >#  rich_crit_pbl, entr_ratio, parcel_buoy,
(PID.TID 0000.0001) >#  znom, free_atm_diff, free_atm_skyhi_diff,
(PID.TID 0000.0001) >#  pbl_mcm, rich_crit_diff, mix_len, rich_prandtl,
(PID.TID 0000.0001) >#  background_m, background_t, ampns, ampns_max,
(PID.TID 0000.0001) >#  do_virtual_non_mcm
(PID.TID 0000.0001) > /
(PID.TID 0000.0001) >
(PID.TID 0000.0001) > &monin_obukhov_nml
(PID.TID 0000.0001) > /
(PID.TID 0000.0001) >
(PID.TID 0000.0001) > &my25_turb_nml
(PID.TID 0000.0001) > /
(PID.TID 0000.0001) >
(PID.TID 0000.0001) > &shallow_conv_nml
(PID.TID 0000.0001) > /
(PID.TID 0000.0001) >
(PID.TID 0000.0001) > &mixed_layer_nml
(PID.TID 0000.0001) ># evaporation, qflux_amp, depth, qflux_width
(PID.TID 0000.0001) >  depth=5000.,
(PID.TID 0000.0001) > /
(PID.TID 0000.0001) 
(PID.TID 0000.0001) DIFFUSIVITY_INIT: finished reading data.atm_gray
(PID.TID 0000.0001) SOLVE_FOR_PRESSURE: putPmEinXvector =    F
 cg2d: Sum(rhs),rhsMax =   2.98314262181520E-10  1.15643245709385E+02
(PID.TID 0000.0001)      cg2d_init_res =   3.76284312959005E+03
(PID.TID 0000.0001)      cg2d_iters(min,last) =      -1      12
(PID.TID 0000.0001)      cg2d_last_res =   5.53427932930136E-11
(PID.TID 0000.0001) // =======================================================
(PID.TID 0000.0001) // Begin MONITOR dynamic field statistics
(PID.TID 0000.0001) // =======================================================
(PID.TID 0000.0001) %MON time_tsnumber                =                     1
(PID.TID 0000.0001) %MON time_secondsf                =   3.6000000000000E+02
(PID.TID 0000.0001) %MON dynstat_eta_max              =   1.4279177601168E+01
(PID.TID 0000.0001) %MON dynstat_eta_min              =  -8.7978186035698E+00
(PID.TID 0000.0001) %MON dynstat_eta_mean             =   2.6778371680327E-15
(PID.TID 0000.0001) %MON dynstat_eta_sd               =   7.0826410630125E+00
(PID.TID 0000.0001) %MON dynstat_eta_del2             =   3.6116162885768E-02
(PID.TID 0000.0001) %MON dynstat_uvel_max             =   1.3016800146121E+00
(PID.TID 0000.0001) %MON dynstat_uvel_min             =  -1.3016800146121E+00
(PID.TID 0000.0001) %MON dynstat_uvel_mean            =   0.0000000000000E+00
(PID.TID 0000.0001) %MON dynstat_uvel_sd              =   4.2127420517919E-01
(PID.TID 0000.0001) %MON dynstat_uvel_del2            =   1.0799549628826E-04
(PID.TID 0000.0001) %MON dynstat_vvel_max             =   1.3016800146121E+00
(PID.TID 0000.0001) %MON dynstat_vvel_min             =  -1.3016800146121E+00
(PID.TID 0000.0001) %MON dynstat_vvel_mean            =  -2.5104723450307E-18
(PID.TID 0000.0001) %MON dynstat_vvel_sd              =   4.2127420517919E-01
(PID.TID 0000.0001) %MON dynstat_vvel_del2            =   1.0799549628826E-04
(PID.TID 0000.0001) %MON dynstat_wvel_max             =   1.7170597841977E-02
(PID.TID 0000.0001) %MON dynstat_wvel_min             =  -1.4115125359213E-02
(PID.TID 0000.0001) %MON dynstat_wvel_mean            =   4.3242579828442E-18
(PID.TID 0000.0001) %MON dynstat_wvel_sd              =   4.2423217473424E-03
(PID.TID 0000.0001) %MON dynstat_wvel_del2            =   8.6997822494988E-06
(PID.TID 0000.0001) %MON dynstat_theta_max            =   1.1536167179675E+03
(PID.TID 0000.0001) %MON dynstat_theta_min            =   2.5506452546202E+02
(PID.TID 0000.0001) %MON dynstat_theta_mean           =   3.2786894116475E+02
(PID.TID 0000.0001) %MON dynstat_theta_sd             =   9.0375112592918E+01
(PID.TID 0000.0001) %MON dynstat_theta_del2           =   5.5154425744038E-04
(PID.TID 0000.0001) %MON dynstat_salt_max             =   2.0315167764138E-02
(PID.TID 0000.0001) %MON dynstat_salt_min             =   0.0000000000000E+00
(PID.TID 0000.0001) %MON dynstat_salt_mean            =   1.7956493423062E-03
(PID.TID 0000.0001) %MON dynstat_salt_sd              =   3.7984831091007E-03
(PID.TID 0000.0001) %MON dynstat_salt_del2            =   1.3791671516390E-07
(PID.TID 0000.0001) %MON trAdv_CFL_u_max              =   2.6601976393371E-03
(PID.TID 0000.0001) %MON trAdv_CFL_v_max              =   2.6601976393371E-03
(PID.TID 0000.0001) %MON trAdv_CFL_w_max              =   1.3788457929456E-03
(PID.TID 0000.0001) %MON advcfl_uvel_max              =   3.4356045491987E-03
(PID.TID 0000.0001) %MON advcfl_vvel_max              =   3.4356045491987E-03
(PID.TID 0000.0001) %MON advcfl_wvel_max              =   1.2513369344864E-03
(PID.TID 0000.0001) %MON advcfl_W_hf_max              =   1.3788457929456E-03
(PID.TID 0000.0001) %MON am_eta_mean                  =   0.0000000000000E+00
(PID.TID 0000.0001) %MON am_uZo_mean                  =   3.6777087767332E-08
(PID.TID 0000.0001) %MON am_tot_mean                  =   3.6777087767332E-08
(PID.TID 0000.0001) %MON pe_b_mean                    =   2.1245751682931E-04
(PID.TID 0000.0001) %MON ke_max                       =   8.5367290608323E-01
(PID.TID 0000.0001) %MON ke_mean                      =   1.7747195594936E-01
(PID.TID 0000.0001) %MON ke_vol                       =   5.0986421042785E+19
(PID.TID 0000.0001) %MON vort_r_min                   =  -3.1534869439159E-08
(PID.TID 0000.0001) %MON vort_r_max                   =   3.1534869439159E-08
(PID.TID 0000.0001) %MON vort_a_mean                  =   7.3540655213554E-21
(PID.TID 0000.0001) %MON vort_a_sd                    =   8.4202189512624E-05
(PID.TID 0000.0001) %MON vort_p_mean                  =   7.3540655213554E-21
(PID.TID 0000.0001) %MON vort_p_sd                    =   8.4202189512624E-05
(PID.TID 0000.0001) %MON surfExpan_theta_mean         =  -2.8172945396403E-01
(PID.TID 0000.0001) %MON surfExpan_salt_mean          =  -2.6087094071226E-05
(PID.TID 0000.0001) %MON surfExpan_Heat_mean          =  -2.4706860583699E+01
(PID.TID 0000.0001) %MON En_Budget_T2PE_mean          =   2.8652352802131E+00
(PID.TID 0000.0001) // =======================================================
(PID.TID 0000.0001) // End MONITOR dynamic field statistics
(PID.TID 0000.0001) // =======================================================
 cg2d: Sum(rhs),rhsMax =  -2.03726813197136E-10  3.20808459134456E+02
(PID.TID 0000.0001)      cg2d_init_res =   7.45985994563367E+03
(PID.TID 0000.0001)      cg2d_iters(min,last) =      -1      12
(PID.TID 0000.0001)      cg2d_last_res =   8.47734270404694E-11
(PID.TID 0000.0001) // =======================================================
(PID.TID 0000.0001) // Begin MONITOR dynamic field statistics
(PID.TID 0000.0001) // =======================================================
(PID.TID 0000.0001) %MON time_tsnumber                =                     2
(PID.TID 0000.0001) %MON time_secondsf                =   7.2000000000000E+02
(PID.TID 0000.0001) %MON dynstat_eta_max              =   4.0597222837518E+01
(PID.TID 0000.0001) %MON dynstat_eta_min              =  -2.6347295685834E+01
(PID.TID 0000.0001) %MON dynstat_eta_mean             =  -2.0083778760245E-15
(PID.TID 0000.0001) %MON dynstat_eta_sd               =   2.1158937043827E+01
(PID.TID 0000.0001) %MON dynstat_eta_del2             =   8.1736119473782E-02
(PID.TID 0000.0001) %MON dynstat_uvel_max             =   2.5959592981628E+00
(PID.TID 0000.0001) %MON dynstat_uvel_min             =  -2.5959010946862E+00
(PID.TID 0000.0001) %MON dynstat_uvel_mean            =   5.1026284404522E-03
(PID.TID 0000.0001) %MON dynstat_uvel_sd              =   8.4138670696744E-01
(PID.TID 0000.0001) %MON dynstat_uvel_del2            =   2.0792785634622E-04
(PID.TID 0000.0001) %MON dynstat_vvel_max             =   2.5960638650528E+00
(PID.TID 0000.0001) %MON dynstat_vvel_min             =  -2.5960661465995E+00
(PID.TID 0000.0001) %MON dynstat_vvel_mean            =   5.0984454092030E-03
(PID.TID 0000.0001) %MON dynstat_vvel_sd              =   8.4139153414513E-01
(PID.TID 0000.0001) %MON dynstat_vvel_del2            =   2.0794218404349E-04
(PID.TID 0000.0001) %MON dynstat_wvel_max             =   3.2823085147582E-02
(PID.TID 0000.0001) %MON dynstat_wvel_min             =  -2.7140472013376E-02
(PID.TID 0000.0001) %MON dynstat_wvel_mean            =   2.6731776621219E-18
(PID.TID 0000.0001) %MON dynstat_wvel_sd              =   8.4293561404289E-03
(PID.TID 0000.0001) %MON dynstat_wvel_del2            =   1.5681133416705E-05
(PID.TID 0000.0001) %MON dynstat_theta_max            =   1.1536879163865E+03
(PID.TID 0000.0001) %MON dynstat_theta_min            =   2.5505148291656E+02
(PID.TID 0000.0001) %MON dynstat_theta_mean           =   3.2786190673137E+02
(PID.TID 0000.0001) %MON dynstat_theta_sd             =   9.0378770232336E+01
(PID.TID 0000.0001) %MON dynstat_theta_del2           =   5.5356233502049E-04
(PID.TID 0000.0001) %MON dynstat_salt_max             =   2.0315173373884E-02
(PID.TID 0000.0001) %MON dynstat_salt_min             =   0.0000000000000E+00
(PID.TID 0000.0001) %MON dynstat_salt_mean            =   1.7959234697298E-03
(PID.TID 0000.0001) %MON dynstat_salt_sd              =   3.7985094566945E-03
(PID.TID 0000.0001) %MON dynstat_salt_del2            =   1.3936301021283E-07
(PID.TID 0000.0001) %MON trAdv_CFL_u_max              =   5.4662862052547E-03
(PID.TID 0000.0001) %MON trAdv_CFL_v_max              =   5.4663487216373E-03
(PID.TID 0000.0001) %MON trAdv_CFL_w_max              =   2.4897630998999E-03
(PID.TID 0000.0001) %MON advcfl_uvel_max              =   7.1385677814170E-03
(PID.TID 0000.0001) %MON advcfl_vvel_max              =   7.1386490131961E-03
(PID.TID 0000.0001) %MON advcfl_wvel_max              =   2.2596632009626E-03
(PID.TID 0000.0001) %MON advcfl_W_hf_max              =   2.4897630998999E-03
(PID.TID 0000.0001) %MON am_eta_mean                  =  -6.2347056404663E+08
(PID.TID 0000.0001) %MON am_uZo_mean                  =   6.2373480644695E+08
(PID.TID 0000.0001) %MON am_tot_mean                  =   2.6424240032256E+05
(PID.TID 0000.0001) %MON pe_b_mean                    =   1.8961353194620E-03
(PID.TID 0000.0001) %MON ke_max                       =   3.4110912009448E+00
(PID.TID 0000.0001) %MON ke_mean                      =   7.0796166767759E-01
(PID.TID 0000.0001) %MON ke_vol                       =   5.0986421042785E+19
(PID.TID 0000.0001) %MON vort_r_min                   =  -1.0859397618811E-07
(PID.TID 0000.0001) %MON vort_r_max                   =   1.0859189463443E-07
(PID.TID 0000.0001) %MON vort_a_mean                  =  -9.3151496603836E-20
(PID.TID 0000.0001) %MON vort_a_sd                    =   8.4206364605642E-05
(PID.TID 0000.0001) %MON vort_p_mean                  =  -9.3151496260672E-20
(PID.TID 0000.0001) %MON vort_p_sd                    =   8.4203755428399E-05
(PID.TID 0000.0001) %MON surfExpan_theta_mean         =  -5.6185652203035E-01
(PID.TID 0000.0001) %MON surfExpan_salt_mean          =  -5.2048728076547E-05
(PID.TID 0000.0001) %MON surfExpan_Heat_mean          =  -4.9277509601969E+01
(PID.TID 0000.0001) %MON En_Budget_T2PE_mean          =   5.7224712247050E+00
(PID.TID 0000.0001) // =======================================================
(PID.TID 0000.0001) // End MONITOR dynamic field statistics
(PID.TID 0000.0001) // =======================================================
 cg2d: Sum(rhs),rhsMax =   6.40284270048141E-10  6.80029630338086E+02
(PID.TID 0000.0001)      cg2d_init_res =   1.11089866430548E+04
(PID.TID 0000.0001)      cg2d_iters(min,last) =      -1      12
(PID.TID 0000.0001)      cg2d_last_res =   9.98378269843442E-11
(PID.TID 0000.0001) // =======================================================
(PID.TID 0000.0001) // Begin MONITOR dynamic field statistics
(PID.TID 0000.0001) // =======================================================
(PID.TID 0000.0001) %MON time_tsnumber                =                     3
(PID.TID 0000.0001) %MON time_secondsf                =   1.0800000000000E+03
(PID.TID 0000.0001) %MON dynstat_eta_max              =   8.1752933354836E+01
(PID.TID 0000.0001) %MON dynstat_eta_min              =  -5.2573861175822E+01
(PID.TID 0000.0001) %MON dynstat_eta_mean             =   1.4728104424180E-14
(PID.TID 0000.0001) %MON dynstat_eta_sd               =   4.2134337428320E+01
(PID.TID 0000.0001) %MON dynstat_eta_del2             =   1.2280030457511E-01
(PID.TID 0000.0001) %MON dynstat_uvel_max             =   3.8778516471818E+00
(PID.TID 0000.0001) %MON dynstat_uvel_min             =  -3.8776836752238E+00
(PID.TID 0000.0001) %MON dynstat_uvel_mean            =   1.3367985650244E-02
(PID.TID 0000.0001) %MON dynstat_uvel_sd              =   1.2590189004012E+00
(PID.TID 0000.0001) %MON dynstat_uvel_del2            =   2.9880437819735E-04
(PID.TID 0000.0001) %MON dynstat_vvel_max             =   3.8781616192213E+00
(PID.TID 0000.0001) %MON dynstat_vvel_min             =  -3.8781645316156E+00
(PID.TID 0000.0001) %MON dynstat_vvel_mean            =   1.3356049483843E-02
(PID.TID 0000.0001) %MON dynstat_vvel_sd              =   1.2590341944963E+00
(PID.TID 0000.0001) %MON dynstat_vvel_del2            =   2.9887497982568E-04
(PID.TID 0000.0001) %MON dynstat_wvel_max             =   4.6236932617067E-02
(PID.TID 0000.0001) %MON dynstat_wvel_min             =  -3.9179890631889E-02
(PID.TID 0000.0001) %MON dynstat_wvel_mean            =   1.2579659586456E-18
(PID.TID 0000.0001) %MON dynstat_wvel_sd              =   1.2527695378428E-02
(PID.TID 0000.0001) %MON dynstat_wvel_del2            =   2.0702368346456E-05
(PID.TID 0000.0001) %MON dynstat_theta_max            =   1.1537718872577E+03
(PID.TID 0000.0001) %MON dynstat_theta_min            =   2.5503844564366E+02
(PID.TID 0000.0001) %MON dynstat_theta_mean           =   3.2785507743406E+02
(PID.TID 0000.0001) %MON dynstat_theta_sd             =   9.0382285973912E+01
(PID.TID 0000.0001) %MON dynstat_theta_del2           =   5.5740065300893E-04
(PID.TID 0000.0001) %MON dynstat_salt_max             =   2.0315179073783E-02
(PID.TID 0000.0001) %MON dynstat_salt_min             =   0.0000000000000E+00
(PID.TID 0000.0001) %MON dynstat_salt_mean            =   1.7961213800012E-03
(PID.TID 0000.0001) %MON dynstat_salt_sd              =   3.7985726605600E-03
(PID.TID 0000.0001) %MON dynstat_salt_del2            =   1.4048540806357E-07
(PID.TID 0000.0001) %MON trAdv_CFL_u_max              =   8.3490083665364E-03
(PID.TID 0000.0001) %MON trAdv_CFL_v_max              =   8.3491884355921E-03
(PID.TID 0000.0001) %MON trAdv_CFL_w_max              =   3.2333992126245E-03
(PID.TID 0000.0001) %MON advcfl_uvel_max              =   1.0779114603847E-02
(PID.TID 0000.0001) %MON advcfl_vvel_max              =   1.0779329255781E-02
(PID.TID 0000.0001) %MON advcfl_wvel_max              =   2.9348393803831E-03
(PID.TID 0000.0001) %MON advcfl_W_hf_max              =   3.2333992126245E-03
(PID.TID 0000.0001) %MON am_eta_mean                  =  -1.8678608132945E+09
(PID.TID 0000.0001) %MON am_uZo_mean                  =   1.8683599133950E+09
(PID.TID 0000.0001) %MON am_tot_mean                  =   4.9910010049987E+05
(PID.TID 0000.0001) %MON pe_b_mean                    =   7.5188941870849E-03
(PID.TID 0000.0001) %MON ke_max                       =   7.6240948157136E+00
(PID.TID 0000.0001) %MON ke_mean                      =   1.5853263907884E+00
(PID.TID 0000.0001) %MON ke_vol                       =   5.0986421042785E+19
(PID.TID 0000.0001) %MON vort_r_min                   =  -2.2130653787305E-07
(PID.TID 0000.0001) %MON vort_r_max                   =   2.2129843911879E-07
(PID.TID 0000.0001) %MON vort_a_mean                  =   2.2062196564066E-20
(PID.TID 0000.0001) %MON vort_a_sd                    =   8.4213134220588E-05
(PID.TID 0000.0001) %MON vort_p_mean                  =   1.7159486015060E-20
(PID.TID 0000.0001) %MON vort_p_sd                    =   8.4205315485415E-05
(PID.TID 0000.0001) %MON surfExpan_theta_mean         =  -8.3897596379076E-01
(PID.TID 0000.0001) %MON surfExpan_salt_mean          =  -7.7790135823023E-05
(PID.TID 0000.0001) %MON surfExpan_Heat_mean          =  -7.3591805850199E+01
(PID.TID 0000.0001) %MON En_Budget_T2PE_mean          =   8.5611037596227E+00
(PID.TID 0000.0001) // =======================================================
(PID.TID 0000.0001) // End MONITOR dynamic field statistics
(PID.TID 0000.0001) // =======================================================
 cg2d: Sum(rhs),rhsMax =  -4.65661287307739E-10  1.17560166401373E+03
(PID.TID 0000.0001)      cg2d_init_res =   1.47191985472601E+04
(PID.TID 0000.0001)      cg2d_iters(min,last) =      -1      12
(PID.TID 0000.0001)      cg2d_last_res =   1.20156330329444E-10
(PID.TID 0000.0001) // =======================================================
(PID.TID 0000.0001) // Begin MONITOR dynamic field statistics
(PID.TID 0000.0001) // =======================================================
(PID.TID 0000.0001) %MON time_tsnumber                =                     4
(PID.TID 0000.0001) %MON time_secondsf                =   1.4400000000000E+03
(PID.TID 0000.0001) %MON dynstat_eta_max              =   1.3985137510619E+02
(PID.TID 0000.0001) %MON dynstat_eta_min              =  -8.7377233416357E+01
(PID.TID 0000.0001) %MON dynstat_eta_mean             =  -2.6778371680327E-15
(PID.TID 0000.0001) %MON dynstat_eta_sd               =   6.9922857946506E+01
(PID.TID 0000.0001) %MON dynstat_eta_del2             =   1.5725570338894E-01
(PID.TID 0000.0001) %MON dynstat_uvel_max             =   5.1486852343795E+00
(PID.TID 0000.0001) %MON dynstat_uvel_min             =  -5.1483542231436E+00
(PID.TID 0000.0001) %MON dynstat_uvel_mean            =   2.4756938481976E-02
(PID.TID 0000.0001) %MON dynstat_uvel_sd              =   1.6736173646934E+00
(PID.TID 0000.0001) %MON dynstat_uvel_del2            =   3.8368685986889E-04
(PID.TID 0000.0001) %MON dynstat_vvel_max             =   5.1492684292310E+00
(PID.TID 0000.0001) %MON dynstat_vvel_min             =  -5.1491577236121E+00
(PID.TID 0000.0001) %MON dynstat_vvel_mean            =   2.4733893314769E-02
(PID.TID 0000.0001) %MON dynstat_vvel_sd              =   1.6736496433052E+00
(PID.TID 0000.0001) %MON dynstat_vvel_del2            =   3.8388053424102E-04
(PID.TID 0000.0001) %MON dynstat_wvel_max             =   5.7661651876214E-02
(PID.TID 0000.0001) %MON dynstat_wvel_min             =  -5.2897124051961E-02
(PID.TID 0000.0001) %MON dynstat_wvel_mean            =  -2.6102793641896E-17
(PID.TID 0000.0001) %MON dynstat_wvel_sd              =   1.6549880172759E-02
(PID.TID 0000.0001) %MON dynstat_wvel_del2            =   2.4663586350697E-05
(PID.TID 0000.0001) %MON dynstat_theta_max            =   1.1538206849057E+03
(PID.TID 0000.0001) %MON dynstat_theta_min            =   2.5502541268431E+02
(PID.TID 0000.0001) %MON dynstat_theta_mean           =   3.2784834608508E+02
(PID.TID 0000.0001) %MON dynstat_theta_sd             =   9.0385752301259E+01
(PID.TID 0000.0001) %MON dynstat_theta_del2           =   5.6057574039455E-04
(PID.TID 0000.0001) %MON dynstat_salt_max             =   2.0315184910029E-02
(PID.TID 0000.0001) %MON dynstat_salt_min             =   0.0000000000000E+00
(PID.TID 0000.0001) %MON dynstat_salt_mean            =   1.7962758374621E-03
(PID.TID 0000.0001) %MON dynstat_salt_sd              =   3.7986550692973E-03
(PID.TID 0000.0001) %MON dynstat_salt_del2            =   1.4169245822706E-07
(PID.TID 0000.0001) %MON trAdv_CFL_u_max              =   1.1308193368190E-02
(PID.TID 0000.0001) %MON trAdv_CFL_v_max              =   1.1308533231381E-02
(PID.TID 0000.0001) %MON trAdv_CFL_w_max              =   3.8420302578091E-03
(PID.TID 0000.0001) %MON advcfl_uvel_max              =   1.4419691624129E-02
(PID.TID 0000.0001) %MON advcfl_vvel_max              =   1.4420083589331E-02
(PID.TID 0000.0001) %MON advcfl_wvel_max              =   3.4894799313829E-03
(PID.TID 0000.0001) %MON advcfl_W_hf_max              =   3.8420302578091E-03
(PID.TID 0000.0001) %MON am_eta_mean                  =  -3.7277445792172E+09
(PID.TID 0000.0001) %MON am_uZo_mean                  =   3.7282860907028E+09
(PID.TID 0000.0001) %MON am_tot_mean                  =   5.4151148559666E+05
(PID.TID 0000.0001) %MON pe_b_mean                    =   2.0707133188039E-02
(PID.TID 0000.0001) %MON ke_max                       =   1.3432573482805E+01
(PID.TID 0000.0001) %MON ke_mean                      =   2.8016614417102E+00
(PID.TID 0000.0001) %MON ke_vol                       =   5.0986421042784E+19
(PID.TID 0000.0001) %MON vort_r_min                   =  -3.6786490147600E-07
(PID.TID 0000.0001) %MON vort_r_max                   =   3.6784912921048E-07
(PID.TID 0000.0001) %MON vort_a_mean                  =   0.0000000000000E+00
(PID.TID 0000.0001) %MON vort_a_sd                    =   8.4222472307034E-05
(PID.TID 0000.0001) %MON vort_p_mean                  =   2.4513551132038E-21
(PID.TID 0000.0001) %MON vort_p_sd                    =   8.4206863486307E-05
(PID.TID 0000.0001) %MON surfExpan_theta_mean         =  -1.1123083629922E+00
(PID.TID 0000.0001) %MON surfExpan_salt_mean          =  -1.0325104696372E-04
(PID.TID 0000.0001) %MON surfExpan_Heat_mean          =  -9.7584557786230E+01
(PID.TID 0000.0001) %MON En_Budget_T2PE_mean          =   1.1376995401615E+01
(PID.TID 0000.0001) // =======================================================
(PID.TID 0000.0001) // End MONITOR dynamic field statistics
(PID.TID 0000.0001) // =======================================================
 cg2d: Sum(rhs),rhsMax =   1.97906047105789E-09  1.79520609099164E+03
(PID.TID 0000.0001)      cg2d_init_res =   1.82836479572854E+04
(PID.TID 0000.0001)      cg2d_iters(min,last) =      -1      13
(PID.TID 0000.0001)      cg2d_last_res =   6.65431338269053E-12
(PID.TID 0000.0001) // =======================================================
(PID.TID 0000.0001) // Begin MONITOR dynamic field statistics
(PID.TID 0000.0001) // =======================================================
(PID.TID 0000.0001) %MON time_tsnumber                =                     5
(PID.TID 0000.0001) %MON time_secondsf                =   1.8000000000000E+03
(PID.TID 0000.0001) %MON dynstat_eta_max              =   2.1238270911719E+02
(PID.TID 0000.0001) %MON dynstat_eta_min              =  -1.3063236426577E+02
(PID.TID 0000.0001) %MON dynstat_eta_mean             =  -1.3389185840164E-14
(PID.TID 0000.0001) %MON dynstat_eta_sd               =   1.0443209376820E+02
(PID.TID 0000.0001) %MON dynstat_eta_del2             =   1.8768333380394E-01
(PID.TID 0000.0001) %MON dynstat_uvel_max             =   6.4083447631706E+00
(PID.TID 0000.0001) %MON dynstat_uvel_min             =  -6.4077854908355E+00
(PID.TID 0000.0001) %MON dynstat_uvel_mean            =   3.9223840528845E-02
(PID.TID 0000.0001) %MON dynstat_uvel_sd              =   2.0845035293958E+00
(PID.TID 0000.0001) %MON dynstat_uvel_del2            =   4.6610269725136E-04
(PID.TID 0000.0001) %MON dynstat_vvel_max             =   6.4092759124135E+00
(PID.TID 0000.0001) %MON dynstat_vvel_min             =  -6.4091150716976E+00
(PID.TID 0000.0001) %MON dynstat_vvel_mean            =   3.9186593929586E-02
(PID.TID 0000.0001) %MON dynstat_vvel_sd              =   2.0845597962722E+00
(PID.TID 0000.0001) %MON dynstat_vvel_del2            =   4.6647897109913E-04
(PID.TID 0000.0001) %MON dynstat_wvel_max             =   6.8613267127284E-02
(PID.TID 0000.0001) %MON dynstat_wvel_min             =  -6.6906226197019E-02
(PID.TID 0000.0001) %MON dynstat_wvel_mean            =  -2.0756438317652E-17
(PID.TID 0000.0001) %MON dynstat_wvel_sd              =   2.0507096799179E-02
(PID.TID 0000.0001) %MON dynstat_wvel_del2            =   2.7988384830076E-05
(PID.TID 0000.0001) %MON dynstat_theta_max            =   1.1538700914472E+03
(PID.TID 0000.0001) %MON dynstat_theta_min            =   2.5501238306168E+02
(PID.TID 0000.0001) %MON dynstat_theta_mean           =   3.2784163199843E+02
(PID.TID 0000.0001) %MON dynstat_theta_sd             =   9.0389235285855E+01
(PID.TID 0000.0001) %MON dynstat_theta_del2           =   5.6386920095154E-04
(PID.TID 0000.0001) %MON dynstat_salt_max             =   2.0315190918746E-02
(PID.TID 0000.0001) %MON dynstat_salt_min             =   0.0000000000000E+00
(PID.TID 0000.0001) %MON dynstat_salt_mean            =   1.7964119811863E-03
(PID.TID 0000.0001) %MON dynstat_salt_sd              =   3.7987441182073E-03
(PID.TID 0000.0001) %MON dynstat_salt_del2            =   1.4288425551709E-07
(PID.TID 0000.0001) %MON trAdv_CFL_u_max              =   1.4340474845343E-02
(PID.TID 0000.0001) %MON trAdv_CFL_v_max              =   1.4341001999423E-02
(PID.TID 0000.0001) %MON trAdv_CFL_w_max              =   4.4500242958584E-03
(PID.TID 0000.0001) %MON advcfl_uvel_max              =   1.8077155856249E-02
(PID.TID 0000.0001) %MON advcfl_vvel_max              =   1.8077747353647E-02
(PID.TID 0000.0001) %MON advcfl_wvel_max              =   4.0429357680956E-03
(PID.TID 0000.0001) %MON advcfl_W_hf_max              =   4.4500242958584E-03
(PID.TID 0000.0001) %MON am_eta_mean                  =  -6.1961988170250E+09
(PID.TID 0000.0001) %MON am_uZo_mean                  =   6.1964346218484E+09
(PID.TID 0000.0001) %MON am_tot_mean                  =   2.3580482342052E+05
(PID.TID 0000.0001) %MON pe_b_mean                    =   4.6190174802629E-02
(PID.TID 0000.0001) %MON ke_max                       =   2.0812399286384E+01
(PID.TID 0000.0001) %MON ke_mean                      =   4.3468093035537E+00
(PID.TID 0000.0001) %MON ke_vol                       =   5.0986421042785E+19
(PID.TID 0000.0001) %MON vort_r_min                   =  -5.4751798054419E-07
(PID.TID 0000.0001) %MON vort_r_max                   =   5.4750194853627E-07
(PID.TID 0000.0001) %MON vort_a_mean                  =   1.7649757251253E-19
(PID.TID 0000.0001) %MON vort_a_sd                    =   8.4234351625513E-05
(PID.TID 0000.0001) %MON vort_p_mean                  =   1.7404620993919E-19
(PID.TID 0000.0001) %MON vort_p_sd                    =   8.4208397417796E-05
(PID.TID 0000.0001) %MON surfExpan_theta_mean         =  -1.3809935361678E+00
(PID.TID 0000.0001) %MON surfExpan_salt_mean          =  -1.2836285637751E-04
(PID.TID 0000.0001) %MON surfExpan_Heat_mean          =  -1.2118324802977E+02
(PID.TID 0000.0001) %MON En_Budget_T2PE_mean          =   1.4165240985156E+01
(PID.TID 0000.0001) // =======================================================
(PID.TID 0000.0001) // End MONITOR dynamic field statistics
(PID.TID 0000.0001) // =======================================================
 cg2d: Sum(rhs),rhsMax =   2.32830643653870E-10  2.51957597224168E+03
(PID.TID 0000.0001)      cg2d_init_res =   2.17904356596724E+04
(PID.TID 0000.0001)      cg2d_iters(min,last) =      -1      13
(PID.TID 0000.0001)      cg2d_last_res =   8.56767720628861E-12
(PID.TID 0000.0001) // =======================================================
(PID.TID 0000.0001) // Begin MONITOR dynamic field statistics
(PID.TID 0000.0001) // =======================================================
(PID.TID 0000.0001) %MON time_tsnumber                =                     6
(PID.TID 0000.0001) %MON time_secondsf                =   2.1600000000000E+03
(PID.TID 0000.0001) %MON dynstat_eta_max              =   2.9755317768138E+02
(PID.TID 0000.0001) %MON dynstat_eta_min              =  -1.8219302162235E+02
(PID.TID 0000.0001) %MON dynstat_eta_mean             =   1.6067023008196E-14
(PID.TID 0000.0001) %MON dynstat_eta_sd               =   1.4555478544236E+02
(PID.TID 0000.0001) %MON dynstat_eta_del2             =   2.1746231528408E-01
(PID.TID 0000.0001) %MON dynstat_uvel_max             =   7.6552018304279E+00
(PID.TID 0000.0001) %MON dynstat_uvel_min             =  -7.6543553939507E+00
(PID.TID 0000.0001) %MON dynstat_uvel_mean            =   5.6712666561947E-02
(PID.TID 0000.0001) %MON dynstat_uvel_sd              =   2.4910170024439E+00
(PID.TID 0000.0001) %MON dynstat_uvel_del2            =   5.4649120926896E-04
(PID.TID 0000.0001) %MON dynstat_vvel_max             =   7.6565314321047E+00
(PID.TID 0000.0001) %MON dynstat_vvel_min             =  -7.6563110919109E+00
(PID.TID 0000.0001) %MON dynstat_vvel_mean            =   5.6658444132990E-02
(PID.TID 0000.0001) %MON dynstat_vvel_sd              =   2.4911042302748E+00
(PID.TID 0000.0001) %MON dynstat_vvel_del2            =   5.4708160030414E-04
(PID.TID 0000.0001) %MON dynstat_wvel_max             =   7.8763661869879E-02
(PID.TID 0000.0001) %MON dynstat_wvel_min             =  -8.1594489790772E-02
(PID.TID 0000.0001) %MON dynstat_wvel_mean            =  -3.5852029821399E-17
(PID.TID 0000.0001) %MON dynstat_wvel_sd              =   2.4408407620697E-02
(PID.TID 0000.0001) %MON dynstat_wvel_del2            =   3.1166686094044E-05
(PID.TID 0000.0001) %MON dynstat_theta_max            =   1.1539333917637E+03
(PID.TID 0000.0001) %MON dynstat_theta_min            =   2.5499935578632E+02
(PID.TID 0000.0001) %MON dynstat_theta_mean           =   3.2783491717351E+02
(PID.TID 0000.0001) %MON dynstat_theta_sd             =   9.0392753765191E+01
(PID.TID 0000.0001) %MON dynstat_theta_del2           =   5.6831569337834E-04
(PID.TID 0000.0001) %MON dynstat_salt_max             =   2.0315197131018E-02
(PID.TID 0000.0001) %MON dynstat_salt_min             =   0.0000000000000E+00
(PID.TID 0000.0001) %MON dynstat_salt_mean            =   1.7965339671109E-03
(PID.TID 0000.0001) %MON dynstat_salt_sd              =   3.7988372932110E-03
(PID.TID 0000.0001) %MON dynstat_salt_del2            =   1.4383199383078E-07
(PID.TID 0000.0001) %MON trAdv_CFL_u_max              =   1.7439802903566E-02
(PID.TID 0000.0001) %MON trAdv_CFL_v_max              =   1.7440530404980E-02
(PID.TID 0000.0001) %MON trAdv_CFL_w_max              =   4.9697548542393E-03
(PID.TID 0000.0001) %MON advcfl_uvel_max              =   2.1723816230885E-02
(PID.TID 0000.0001) %MON advcfl_vvel_max              =   2.1724641571253E-02
(PID.TID 0000.0001) %MON advcfl_wvel_max              =   4.5167376607062E-03
(PID.TID 0000.0001) %MON advcfl_W_hf_max              =   4.9697548542393E-03
(PID.TID 0000.0001) %MON am_eta_mean                  =  -9.2645829579935E+09
(PID.TID 0000.0001) %MON am_uZo_mean                  =   9.2640170979829E+09
(PID.TID 0000.0001) %MON am_tot_mean                  =  -5.6586001066780E+05
(PID.TID 0000.0001) %MON pe_b_mean                    =   8.9729368659523E-02
(PID.TID 0000.0001) %MON ke_max                       =   2.9744803205116E+01
(PID.TID 0000.0001) %MON ke_mean                      =   6.2085962491990E+00
(PID.TID 0000.0001) %MON ke_vol                       =   5.0986421042785E+19
(PID.TID 0000.0001) %MON vort_r_min                   =  -7.5928680713981E-07
(PID.TID 0000.0001) %MON vort_r_max                   =   7.5928288749376E-07
(PID.TID 0000.0001) %MON vort_a_mean                  =   1.2011640351547E-19
(PID.TID 0000.0001) %MON vort_a_sd                    =   8.4248738716726E-05
(PID.TID 0000.0001) %MON vort_p_mean                  =   1.1766504074973E-19
(PID.TID 0000.0001) %MON vort_p_sd                    =   8.4209915377231E-05
(PID.TID 0000.0001) %MON surfExpan_theta_mean         =  -1.6441888249565E+00
(PID.TID 0000.0001) %MON surfExpan_salt_mean          =  -1.5305867232782E-04
(PID.TID 0000.0001) %MON surfExpan_Heat_mean          =  -1.4431673620573E+02
(PID.TID 0000.0001) %MON En_Budget_T2PE_mean          =   1.6921020100555E+01
(PID.TID 0000.0001) // =======================================================
(PID.TID 0000.0001) // End MONITOR dynamic field statistics
(PID.TID 0000.0001) // =======================================================
 cg2d: Sum(rhs),rhsMax =   1.16415321826935E-09  3.32902751549601E+03
(PID.TID 0000.0001)      cg2d_init_res =   2.52285921875149E+04
(PID.TID 0000.0001)      cg2d_iters(min,last) =      -1      13
(PID.TID 0000.0001)      cg2d_last_res =   1.18776676887234E-11
(PID.TID 0000.0001) // =======================================================
(PID.TID 0000.0001) // Begin MONITOR dynamic field statistics
(PID.TID 0000.0001) // =======================================================
(PID.TID 0000.0001) %MON time_tsnumber                =                     7
(PID.TID 0000.0001) %MON time_secondsf                =   2.5200000000000E+03
(PID.TID 0000.0001) %MON dynstat_eta_max              =   3.9349997969087E+02
(PID.TID 0000.0001) %MON dynstat_eta_min              =  -2.4188881820224E+02
(PID.TID 0000.0001) %MON dynstat_eta_mean             =   1.7673725309016E-13
(PID.TID 0000.0001) %MON dynstat_eta_sd               =   1.9316493503681E+02
(PID.TID 0000.0001) %MON dynstat_eta_del2             =   2.4763201856762E-01
(PID.TID 0000.0001) %MON dynstat_uvel_max             =   8.8908885325160E+00
(PID.TID 0000.0001) %MON dynstat_uvel_min             =  -8.8896897601370E+00
(PID.TID 0000.0001) %MON dynstat_uvel_mean            =   7.7157734256005E-02
(PID.TID 0000.0001) %MON dynstat_uvel_sd              =   2.8925146139289E+00
(PID.TID 0000.0001) %MON dynstat_uvel_del2            =   6.2507837270206E-04
(PID.TID 0000.0001) %MON dynstat_vvel_max             =   8.8926685838789E+00
(PID.TID 0000.0001) %MON dynstat_vvel_min             =  -8.8921353347474E+00
(PID.TID 0000.0001) %MON dynstat_vvel_mean            =   7.7084056549776E-02
(PID.TID 0000.0001) %MON dynstat_vvel_sd              =   2.8926397099561E+00
(PID.TID 0000.0001) %MON dynstat_vvel_del2            =   6.2592223297541E-04
(PID.TID 0000.0001) %MON dynstat_wvel_max             =   9.0375054632169E-02
(PID.TID 0000.0001) %MON dynstat_wvel_min             =  -9.6631084788985E-02
(PID.TID 0000.0001) %MON dynstat_wvel_mean            =   3.8996944718013E-17
(PID.TID 0000.0001) %MON dynstat_wvel_sd              =   2.8257987668075E-02
(PID.TID 0000.0001) %MON dynstat_wvel_del2            =   3.4371443043411E-05
(PID.TID 0000.0001) %MON dynstat_theta_max            =   1.1540267557780E+03
(PID.TID 0000.0001) %MON dynstat_theta_min            =   2.5498632986161E+02
(PID.TID 0000.0001) %MON dynstat_theta_mean           =   3.2782817490611E+02
(PID.TID 0000.0001) %MON dynstat_theta_sd             =   9.0396331002302E+01
(PID.TID 0000.0001) %MON dynstat_theta_del2           =   5.7457159084707E-04
(PID.TID 0000.0001) %MON dynstat_salt_max             =   2.0315203580806E-02
(PID.TID 0000.0001) %MON dynstat_salt_min             =   0.0000000000000E+00
(PID.TID 0000.0001) %MON dynstat_salt_mean            =   1.7966491294750E-03
(PID.TID 0000.0001) %MON dynstat_salt_sd              =   3.7989309738599E-03
(PID.TID 0000.0001) %MON dynstat_salt_del2            =   1.4490664458626E-07
(PID.TID 0000.0001) %MON trAdv_CFL_u_max              =   2.0599019302922E-02
(PID.TID 0000.0001) %MON trAdv_CFL_v_max              =   2.0599947160094E-02
(PID.TID 0000.0001) %MON trAdv_CFL_w_max              =   5.4260023328397E-03
(PID.TID 0000.0001) %MON advcfl_uvel_max              =   2.5371312189862E-02
(PID.TID 0000.0001) %MON advcfl_vvel_max              =   2.5372356476582E-02
(PID.TID 0000.0001) %MON advcfl_wvel_max              =   4.9334089200753E-03
(PID.TID 0000.0001) %MON advcfl_W_hf_max              =   5.4260023328397E-03
(PID.TID 0000.0001) %MON am_eta_mean                  =  -1.2922568788718E+10
(PID.TID 0000.0001) %MON am_uZo_mean                  =   1.2920570198093E+10
(PID.TID 0000.0001) %MON am_tot_mean                  =  -1.9985906247501E+06
(PID.TID 0000.0001) %MON pe_b_mean                    =   1.5802951961400E-01
(PID.TID 0000.0001) %MON ke_max                       =   4.0194787434595E+01
(PID.TID 0000.0001) %MON ke_mean                      =   8.3729502755689E+00
(PID.TID 0000.0001) %MON ke_vol                       =   5.0986421042785E+19
(PID.TID 0000.0001) %MON vort_r_min                   =  -1.0019913813359E-06
(PID.TID 0000.0001) %MON vort_r_max                   =   1.0020156330685E-06
(PID.TID 0000.0001) %MON vort_a_mean                  =  -1.0540827247276E-19
(PID.TID 0000.0001) %MON vort_a_sd                    =   8.4265594624496E-05
(PID.TID 0000.0001) %MON vort_p_mean                  =  -1.0785961793815E-19
(PID.TID 0000.0001) %MON vort_p_sd                    =   8.4211416195380E-05
(PID.TID 0000.0001) %MON surfExpan_theta_mean         =  -1.9010767773893E+00
(PID.TID 0000.0001) %MON surfExpan_salt_mean          =  -1.7727167483147E-04
(PID.TID 0000.0001) %MON surfExpan_Heat_mean          =  -1.6691587987385E+02
(PID.TID 0000.0001) %MON En_Budget_T2PE_mean          =   1.9639680198636E+01
(PID.TID 0000.0001) // =======================================================
(PID.TID 0000.0001) // End MONITOR dynamic field statistics
(PID.TID 0000.0001) // =======================================================
 cg2d: Sum(rhs),rhsMax =  -2.79396772384644E-09  4.20804425576502E+03
(PID.TID 0000.0001)      cg2d_init_res =   2.85874932417934E+04
(PID.TID 0000.0001)      cg2d_iters(min,last) =      -1      13
(PID.TID 0000.0001)      cg2d_last_res =   1.70207519180018E-11
(PID.TID 0000.0001) // =======================================================
(PID.TID 0000.0001) // Begin MONITOR dynamic field statistics
(PID.TID 0000.0001) // =======================================================
(PID.TID 0000.0001) %MON time_tsnumber                =                     8
(PID.TID 0000.0001) %MON time_secondsf                =   2.8800000000000E+03
(PID.TID 0000.0001) %MON dynstat_eta_max              =   4.9871133008818E+02
(PID.TID 0000.0001) %MON dynstat_eta_min              =  -3.0952536844690E+02
(PID.TID 0000.0001) %MON dynstat_eta_mean             =   4.2845394688523E-14
(PID.TID 0000.0001) %MON dynstat_eta_sd               =   2.4711644078614E+02
(PID.TID 0000.0001) %MON dynstat_eta_del2             =   2.7792455664956E-01
(PID.TID 0000.0001) %MON dynstat_uvel_max             =   1.0112716525992E+01
(PID.TID 0000.0001) %MON dynstat_uvel_min             =  -1.0111085043920E+01
(PID.TID 0000.0001) %MON dynstat_uvel_mean            =   1.0048394851265E-01
(PID.TID 0000.0001) %MON dynstat_uvel_sd              =   3.2883724355013E+00
(PID.TID 0000.0001) %MON dynstat_uvel_del2            =   7.0183144292450E-04
(PID.TID 0000.0001) %MON dynstat_vvel_max             =   1.0114949258679E+01
(PID.TID 0000.0001) %MON dynstat_vvel_min             =  -1.0114287118988E+01
(PID.TID 0000.0001) %MON dynstat_vvel_mean            =   1.0038862540254E-01
(PID.TID 0000.0001) %MON dynstat_vvel_sd              =   3.2885419675661E+00
(PID.TID 0000.0001) %MON dynstat_vvel_del2            =   7.0301563030964E-04
(PID.TID 0000.0001) %MON dynstat_wvel_max             =   1.0913919083870E-01
(PID.TID 0000.0001) %MON dynstat_wvel_min             =  -1.1180187770368E-01
(PID.TID 0000.0001) %MON dynstat_wvel_mean            =  -2.0756438317652E-17
(PID.TID 0000.0001) %MON dynstat_wvel_sd              =   3.2057717111603E-02
(PID.TID 0000.0001) %MON dynstat_wvel_del2            =   3.7673627094151E-05
(PID.TID 0000.0001) %MON dynstat_theta_max            =   1.1541286360327E+03
(PID.TID 0000.0001) %MON dynstat_theta_min            =   2.5497330428965E+02
(PID.TID 0000.0001) %MON dynstat_theta_mean           =   3.2782139359397E+02
(PID.TID 0000.0001) %MON dynstat_theta_sd             =   9.0399979256130E+01
(PID.TID 0000.0001) %MON dynstat_theta_del2           =   5.8199443828525E-04
(PID.TID 0000.0001) %MON dynstat_salt_max             =   2.0315210299972E-02
(PID.TID 0000.0001) %MON dynstat_salt_min             =   0.0000000000000E+00
(PID.TID 0000.0001) %MON dynstat_salt_mean            =   1.7967595872608E-03
(PID.TID 0000.0001) %MON dynstat_salt_sd              =   3.7990235312617E-03
(PID.TID 0000.0001) %MON dynstat_salt_del2            =   1.4593484501665E-07
(PID.TID 0000.0001) %MON trAdv_CFL_u_max              =   2.3811033270642E-02
(PID.TID 0000.0001) %MON trAdv_CFL_v_max              =   2.3812150003316E-02
(PID.TID 0000.0001) %MON trAdv_CFL_w_max              =   5.8343531450884E-03
(PID.TID 0000.0001) %MON advcfl_uvel_max              =   2.9026048212900E-02
(PID.TID 0000.0001) %MON advcfl_vvel_max              =   2.9027298736262E-02
(PID.TID 0000.0001) %MON advcfl_wvel_max              =   5.3071451213302E-03
(PID.TID 0000.0001) %MON advcfl_W_hf_max              =   5.8343531450884E-03
(PID.TID 0000.0001) %MON am_eta_mean                  =  -1.7158171038824E+10
(PID.TID 0000.0001) %MON am_uZo_mean                  =   1.7153987998025E+10
(PID.TID 0000.0001) %MON am_tot_mean                  =  -4.1830407997169E+06
(PID.TID 0000.0001) %MON pe_b_mean                    =   2.5863358253485E-01
(PID.TID 0000.0001) %MON ke_max                       =   5.2086000787926E+01
(PID.TID 0000.0001) %MON ke_mean                      =   1.0824038223514E+01
(PID.TID 0000.0001) %MON ke_vol                       =   5.0986421042785E+19
(PID.TID 0000.0001) %MON vort_r_min                   =  -1.2741229628217E-06
(PID.TID 0000.0001) %MON vort_r_max                   =   1.2741914962787E-06
(PID.TID 0000.0001) %MON vort_a_mean                  =  -1.7649757251253E-19
(PID.TID 0000.0001) %MON vort_a_sd                    =   8.4284874893773E-05
(PID.TID 0000.0001) %MON vort_p_mean                  =  -1.7894890648227E-19
(PID.TID 0000.0001) %MON vort_p_sd                    =   8.4212899356639E-05
(PID.TID 0000.0001) %MON surfExpan_theta_mean         =  -2.1508641837614E+00
(PID.TID 0000.0001) %MON surfExpan_salt_mean          =  -2.0093695518374E-04
(PID.TID 0000.0001) %MON surfExpan_Heat_mean          =  -1.8891338913916E+02
(PID.TID 0000.0001) %MON En_Budget_T2PE_mean          =   2.2316665810631E+01
(PID.TID 0000.0001) // =======================================================
(PID.TID 0000.0001) // End MONITOR dynamic field statistics
(PID.TID 0000.0001) // =======================================================
(PID.TID 0000.0001)   Exporting atmospheric surf fluxes at iter=         8
(PID.TID 0000.0001)   Importing  oceanic surface fields at iter=         8
 cg2d: Sum(rhs),rhsMax =   1.39698386192322E-09  5.14723948217530E+03
(PID.TID 0000.0001)      cg2d_init_res =   3.18561555526782E+04
(PID.TID 0000.0001)      cg2d_iters(min,last) =      -1      13
(PID.TID 0000.0001)      cg2d_last_res =   2.43861008795274E-11
(PID.TID 0000.0001) // =======================================================
(PID.TID 0000.0001) // Begin MONITOR dynamic field statistics
(PID.TID 0000.0001) // =======================================================
(PID.TID 0000.0001) %MON time_tsnumber                =                     9
(PID.TID 0000.0001) %MON time_secondsf                =   3.2400000000000E+03
(PID.TID 0000.0001) %MON dynstat_eta_max              =   6.1424833600553E+02
(PID.TID 0000.0001) %MON dynstat_eta_min              =  -3.8488770049634E+02
(PID.TID 0000.0001) %MON dynstat_eta_mean             =  -2.1422697344262E-14
(PID.TID 0000.0001) %MON dynstat_eta_sd               =   3.0724231331730E+02
(PID.TID 0000.0001) %MON dynstat_eta_del2             =   3.0808231433737E-01
(PID.TID 0000.0001) %MON dynstat_uvel_max             =   1.1317076073452E+01
(PID.TID 0000.0001) %MON dynstat_uvel_min             =  -1.1314952555212E+01
(PID.TID 0000.0001) %MON dynstat_uvel_mean            =   1.2660714117095E-01
(PID.TID 0000.0001) %MON dynstat_uvel_sd              =   3.6779887174544E+00
(PID.TID 0000.0001) %MON dynstat_uvel_del2            =   7.7683237065087E-04
(PID.TID 0000.0001) %MON dynstat_vvel_max             =   1.1319770060924E+01
(PID.TID 0000.0001) %MON dynstat_vvel_min             =  -1.1318957125506E+01
(PID.TID 0000.0001) %MON dynstat_vvel_mean            =   1.2648818847379E-01
(PID.TID 0000.0001) %MON dynstat_vvel_sd              =   3.6782090619777E+00
(PID.TID 0000.0001) %MON dynstat_vvel_del2            =   7.7849106249344E-04
(PID.TID 0000.0001) %MON dynstat_wvel_max             =   1.2888889269627E-01
(PID.TID 0000.0001) %MON dynstat_wvel_min             =  -1.2682933700065E-01
(PID.TID 0000.0001) %MON dynstat_wvel_mean            =   1.2202269798862E-16
(PID.TID 0000.0001) %MON dynstat_wvel_sd              =   3.5807600230154E-02
(PID.TID 0000.0001) %MON dynstat_wvel_del2            =   4.1061232839349E-05
(PID.TID 0000.0001) %MON dynstat_theta_max            =   1.1542383398942E+03
(PID.TID 0000.0001) %MON dynstat_theta_min            =   2.5496027816603E+02
(PID.TID 0000.0001) %MON dynstat_theta_mean           =   3.2781457266944E+02
(PID.TID 0000.0001) %MON dynstat_theta_sd             =   9.0403702413445E+01
(PID.TID 0000.0001) %MON dynstat_theta_del2           =   5.8944999957819E-04
(PID.TID 0000.0001) %MON dynstat_salt_max             =   2.0315217276429E-02
(PID.TID 0000.0001) %MON dynstat_salt_min             =   0.0000000000000E+00
(PID.TID 0000.0001) %MON dynstat_salt_mean            =   1.7968638268993E-03
(PID.TID 0000.0001) %MON dynstat_salt_sd              =   3.7991151296846E-03
(PID.TID 0000.0001) %MON dynstat_salt_del2            =   1.4668224483622E-07
(PID.TID 0000.0001) %MON trAdv_CFL_u_max              =   2.7068980159552E-02
(PID.TID 0000.0001) %MON trAdv_CFL_v_max              =   2.7070264162666E-02
(PID.TID 0000.0001) %MON trAdv_CFL_w_max              =   6.2034948924194E-03
(PID.TID 0000.0001) %MON advcfl_uvel_max              =   3.2672673478055E-02
(PID.TID 0000.0001) %MON advcfl_vvel_max              =   3.2674110103505E-02
(PID.TID 0000.0001) %MON advcfl_wvel_max              =   5.6458759250471E-03
(PID.TID 0000.0001) %MON advcfl_W_hf_max              =   6.2034948924194E-03
(PID.TID 0000.0001) %MON am_eta_mean                  =  -2.1957782274738E+10
(PID.TID 0000.0001) %MON am_uZo_mean                  =   2.1950558963783E+10
(PID.TID 0000.0001) %MON am_tot_mean                  =  -7.2233109546051E+06
(PID.TID 0000.0001) %MON pe_b_mean                    =   3.9980082684235E-01
(PID.TID 0000.0001) %MON ke_max                       =   6.5354108754578E+01
(PID.TID 0000.0001) %MON ke_mean                      =   1.3544425769679E+01
(PID.TID 0000.0001) %MON ke_vol                       =   5.0986421042785E+19
(PID.TID 0000.0001) %MON vort_r_min                   =  -1.5740580418218E-06
(PID.TID 0000.0001) %MON vort_r_max                   =   1.5741852349086E-06
(PID.TID 0000.0001) %MON vort_a_mean                  =   9.8054206951406E-20
(PID.TID 0000.0001) %MON vort_a_sd                    =   8.4306529614899E-05
(PID.TID 0000.0001) %MON vort_p_mean                  =   1.0050554707120E-19
(PID.TID 0000.0001) %MON vort_p_sd                    =   8.4214364990095E-05
(PID.TID 0000.0001) %MON surfExpan_theta_mean         =  -2.3927840431360E+00
(PID.TID 0000.0001) %MON surfExpan_salt_mean          =  -2.2399208449921E-04
(PID.TID 0000.0001) %MON surfExpan_Heat_mean          =  -2.1024393821248E+02
(PID.TID 0000.0001) %MON En_Budget_T2PE_mean          =   2.4947519133466E+01
(PID.TID 0000.0001) // =======================================================
(PID.TID 0000.0001) // End MONITOR dynamic field statistics
(PID.TID 0000.0001) // =======================================================
 cg2d: Sum(rhs),rhsMax =   3.25962901115417E-09  6.14302548215814E+03
(PID.TID 0000.0001)      cg2d_init_res =   3.50237367750460E+04
(PID.TID 0000.0001)      cg2d_iters(min,last) =      -1      13
(PID.TID 0000.0001)      cg2d_last_res =   3.44493103271511E-11
(PID.TID 0000.0001) // =======================================================
(PID.TID 0000.0001) // Begin MONITOR dynamic field statistics
(PID.TID 0000.0001) // =======================================================
(PID.TID 0000.0001) %MON time_tsnumber                =                    10
(PID.TID 0000.0001) %MON time_secondsf                =   3.6000000000000E+03
(PID.TID 0000.0001) %MON dynstat_eta_max              =   7.4045500837003E+02
(PID.TID 0000.0001) %MON dynstat_eta_min              =  -4.6773986441968E+02
(PID.TID 0000.0001) %MON dynstat_eta_mean             =  -5.3556743360654E-14
(PID.TID 0000.0001) %MON dynstat_eta_sd               =   3.7335476703466E+02
(PID.TID 0000.0001) %MON dynstat_eta_del2             =   3.3822944730350E-01
(PID.TID 0000.0001) %MON dynstat_uvel_max             =   1.2502540375707E+01
(PID.TID 0000.0001) %MON dynstat_uvel_min             =  -1.2499749992218E+01
(PID.TID 0000.0001) %MON dynstat_uvel_mean            =   1.5543452427910E-01
(PID.TID 0000.0001) %MON dynstat_uvel_sd              =   4.0607864989408E+00
(PID.TID 0000.0001) %MON dynstat_uvel_del2            =   8.5007312827381E-04
(PID.TID 0000.0001) %MON dynstat_vvel_max             =   1.2505493173311E+01
(PID.TID 0000.0001) %MON dynstat_vvel_min             =  -1.2504406509405E+01
(PID.TID 0000.0001) %MON dynstat_vvel_mean            =   1.5529007232593E-01
(PID.TID 0000.0001) %MON dynstat_vvel_sd              =   4.0610638682124E+00
(PID.TID 0000.0001) %MON dynstat_vvel_del2            =   8.5236566100346E-04
(PID.TID 0000.0001) %MON dynstat_wvel_max             =   1.4952437972221E-01
(PID.TID 0000.0001) %MON dynstat_wvel_min             =  -1.4154928114989E-01
(PID.TID 0000.0001) %MON dynstat_wvel_mean            =   1.6353557462393E-17
(PID.TID 0000.0001) %MON dynstat_wvel_sd              =   3.9506385988672E-02
(PID.TID 0000.0001) %MON dynstat_wvel_del2            =   4.4517666294923E-05
(PID.TID 0000.0001) %MON dynstat_theta_max            =   1.1543532785148E+03
(PID.TID 0000.0001) %MON dynstat_theta_min            =   2.5494725042381E+02
(PID.TID 0000.0001) %MON dynstat_theta_mean           =   3.2780769502767E+02
(PID.TID 0000.0001) %MON dynstat_theta_sd             =   9.0407514746305E+01
(PID.TID 0000.0001) %MON dynstat_theta_del2           =   5.9624506533916E-04
(PID.TID 0000.0001) %MON dynstat_salt_max             =   2.0315224579276E-02
(PID.TID 0000.0001) %MON dynstat_salt_min             =   0.0000000000000E+00
(PID.TID 0000.0001) %MON dynstat_salt_mean            =   1.7969659945877E-03
(PID.TID 0000.0001) %MON dynstat_salt_sd              =   3.7992037055372E-03
(PID.TID 0000.0001) %MON dynstat_salt_del2            =   1.4739219459433E-07
(PID.TID 0000.0001) %MON trAdv_CFL_u_max              =   3.0366079312219E-02
(PID.TID 0000.0001) %MON trAdv_CFL_v_max              =   3.0367500110647E-02
(PID.TID 0000.0001) %MON trAdv_CFL_w_max              =   6.5384696923946E-03
(PID.TID 0000.0001) %MON advcfl_uvel_max              =   3.6316776062348E-02
(PID.TID 0000.0001) %MON advcfl_vvel_max              =   3.6318394591168E-02
(PID.TID 0000.0001) %MON advcfl_wvel_max              =   5.9542109661910E-03
(PID.TID 0000.0001) %MON advcfl_W_hf_max              =   6.5384696923946E-03
(PID.TID 0000.0001) %MON am_eta_mean                  =  -2.7306210685477E+10
(PID.TID 0000.0001) %MON am_uZo_mean                  =   2.7294993255806E+10
(PID.TID 0000.0001) %MON am_tot_mean                  =  -1.1217429671238E+07
(PID.TID 0000.0001) %MON pe_b_mean                    =   5.9037102822470E-01
(PID.TID 0000.0001) %MON ke_max                       =   7.9928969149659E+01
(PID.TID 0000.0001) %MON ke_mean                      =   1.6515250814792E+01
(PID.TID 0000.0001) %MON ke_vol                       =   5.0986421042785E+19
(PID.TID 0000.0001) %MON vort_r_min                   =  -1.9001295796248E-06
(PID.TID 0000.0001) %MON vort_r_max                   =   1.9003254133468E-06
(PID.TID 0000.0001) %MON vort_a_mean                  =  -7.3540655213554E-21
(PID.TID 0000.0001) %MON vort_a_sd                    =   8.4330503297881E-05
(PID.TID 0000.0001) %MON vort_p_mean                  =  -4.9027094458954E-21
(PID.TID 0000.0001) %MON vort_p_sd                    =   8.4215813707115E-05
(PID.TID 0000.0001) %MON surfExpan_theta_mean         =  -2.6261056164120E+00
(PID.TID 0000.0001) %MON surfExpan_salt_mean          =  -2.4637505367800E-04
(PID.TID 0000.0001) %MON surfExpan_Heat_mean          =  -2.3084495935483E+02
(PID.TID 0000.0001) %MON En_Budget_T2PE_mean          =   2.7528004982747E+01
(PID.TID 0000.0001) // =======================================================
(PID.TID 0000.0001) // End MONITOR dynamic field statistics
(PID.TID 0000.0001) // =======================================================
 cg2d: Sum(rhs),rhsMax =   9.31322574615479E-09  7.21621212997160E+03
(PID.TID 0000.0001)      cg2d_init_res =   3.80805884028450E+04
(PID.TID 0000.0001)      cg2d_iters(min,last) =      -1      13
(PID.TID 0000.0001)      cg2d_last_res =   4.72534476447043E-11
(PID.TID 0000.0001) // =======================================================
(PID.TID 0000.0001) // Begin MONITOR dynamic field statistics
(PID.TID 0000.0001) // =======================================================
(PID.TID 0000.0001) %MON time_tsnumber                =                    11
(PID.TID 0000.0001) %MON time_secondsf                =   3.9600000000000E+03
(PID.TID 0000.0001) %MON dynstat_eta_max              =   8.7507501063583E+02
(PID.TID 0000.0001) %MON dynstat_eta_min              =  -5.5783360131267E+02
(PID.TID 0000.0001) %MON dynstat_eta_mean             =  -1.9280427609835E-13
(PID.TID 0000.0001) %MON dynstat_eta_sd               =   4.4524647923212E+02
(PID.TID 0000.0001) %MON dynstat_eta_del2             =   3.6852185483540E-01
(PID.TID 0000.0001) %MON dynstat_uvel_max             =   1.3684309478204E+01
(PID.TID 0000.0001) %MON dynstat_uvel_min             =  -1.3679629376377E+01
(PID.TID 0000.0001) %MON dynstat_uvel_mean            =   1.8686517627781E-01
(PID.TID 0000.0001) %MON dynstat_uvel_sd              =   4.4362165004709E+00
(PID.TID 0000.0001) %MON dynstat_uvel_del2            =   9.2145967775302E-04
(PID.TID 0000.0001) %MON dynstat_vvel_max             =   1.3688022712186E+01
(PID.TID 0000.0001) %MON dynstat_vvel_min             =  -1.3686076092935E+01
(PID.TID 0000.0001) %MON dynstat_vvel_mean            =   1.8669336705569E-01
(PID.TID 0000.0001) %MON dynstat_vvel_sd              =   4.4365567289715E+00
(PID.TID 0000.0001) %MON dynstat_vvel_del2            =   9.2455516468974E-04
(PID.TID 0000.0001) %MON dynstat_wvel_max             =   1.7093277122635E-01
(PID.TID 0000.0001) %MON dynstat_wvel_min             =  -1.5585628862373E-01
(PID.TID 0000.0001) %MON dynstat_wvel_mean            =   1.2579659586456E-17
(PID.TID 0000.0001) %MON dynstat_wvel_sd              =   4.3152255478903E-02
(PID.TID 0000.0001) %MON dynstat_wvel_del2            =   4.8034775438041E-05
(PID.TID 0000.0001) %MON dynstat_theta_max            =   1.1545138003960E+03
(PID.TID 0000.0001) %MON dynstat_theta_min            =   2.5493422010791E+02
(PID.TID 0000.0001) %MON dynstat_theta_mean           =   3.2780075433467E+02
(PID.TID 0000.0001) %MON dynstat_theta_sd             =   9.0411422550939E+01
(PID.TID 0000.0001) %MON dynstat_theta_del2           =   6.0248373604942E-04
(PID.TID 0000.0001) %MON dynstat_salt_max             =   2.0315232233500E-02
(PID.TID 0000.0001) %MON dynstat_salt_min             =   0.0000000000000E+00
(PID.TID 0000.0001) %MON dynstat_salt_mean            =   1.7970667850706E-03
(PID.TID 0000.0001) %MON dynstat_salt_sd              =   3.7992887012020E-03
(PID.TID 0000.0001) %MON dynstat_salt_del2            =   1.4823338582377E-07
(PID.TID 0000.0001) %MON trAdv_CFL_u_max              =   3.3695482973070E-02
(PID.TID 0000.0001) %MON trAdv_CFL_v_max              =   3.3697002585003E-02
(PID.TID 0000.0001) %MON trAdv_CFL_w_max              =   6.8432758107367E-03
(PID.TID 0000.0001) %MON advcfl_uvel_max              =   3.9927996006521E-02
(PID.TID 0000.0001) %MON advcfl_vvel_max              =   3.9929764255744E-02
(PID.TID 0000.0001) %MON advcfl_wvel_max              =   6.5884151650412E-03
(PID.TID 0000.0001) %MON advcfl_W_hf_max              =   6.8432758107367E-03
(PID.TID 0000.0001) %MON am_eta_mean                  =  -3.3186721145636E+10
(PID.TID 0000.0001) %MON am_uZo_mean                  =   3.3170469228503E+10
(PID.TID 0000.0001) %MON am_tot_mean                  =  -1.6251917133110E+07
(PID.TID 0000.0001) %MON pe_b_mean                    =   8.3961970634888E-01
(PID.TID 0000.0001) %MON ke_max                       =   9.5734620633387E+01
(PID.TID 0000.0001) %MON ke_mean                      =   1.9716412727922E+01
(PID.TID 0000.0001) %MON ke_vol                       =   5.0986421042785E+19
(PID.TID 0000.0001) %MON vort_r_min                   =  -2.2507087440564E-06
(PID.TID 0000.0001) %MON vort_r_max                   =   2.2509782885705E-06
(PID.TID 0000.0001) %MON vort_a_mean                  =  -1.3482453455818E-19
(PID.TID 0000.0001) %MON vort_a_sd                    =   8.4356735113156E-05
(PID.TID 0000.0001) %MON vort_p_mean                  =  -1.3482450475817E-19
(PID.TID 0000.0001) %MON vort_p_sd                    =   8.4217246803001E-05
(PID.TID 0000.0001) %MON surfExpan_theta_mean         =  -2.8501319972180E+00
(PID.TID 0000.0001) %MON surfExpan_salt_mean          =  -2.6802644403451E-04
(PID.TID 0000.0001) %MON surfExpan_Heat_mean          =  -2.5065639520775E+02
(PID.TID 0000.0001) %MON En_Budget_T2PE_mean          =   3.0054017517589E+01
(PID.TID 0000.0001) // =======================================================
(PID.TID 0000.0001) // End MONITOR dynamic field statistics
(PID.TID 0000.0001) // =======================================================
 cg2d: Sum(rhs),rhsMax =  -7.91624188423157E-09  8.37639737574763E+03
(PID.TID 0000.0001)      cg2d_init_res =   4.10184321997646E+04
(PID.TID 0000.0001)      cg2d_iters(min,last) =      -1      13
(PID.TID 0000.0001)      cg2d_last_res =   6.20218237932195E-11
(PID.TID 0000.0001) // =======================================================
(PID.TID 0000.0001) // Begin MONITOR dynamic field statistics
(PID.TID 0000.0001) // =======================================================
(PID.TID 0000.0001) %MON time_tsnumber                =                    12
(PID.TID 0000.0001) %MON time_secondsf                =   4.3200000000000E+03
(PID.TID 0000.0001) %MON dynstat_eta_max              =   1.0177332425551E+03
(PID.TID 0000.0001) %MON dynstat_eta_min              =  -6.5488424069938E+02
(PID.TID 0000.0001) %MON dynstat_eta_mean             =  -8.5690789377047E-14
(PID.TID 0000.0001) %MON dynstat_eta_sd               =   5.2269251515016E+02
(PID.TID 0000.0001) %MON dynstat_eta_del2             =   3.9886743865583E-01
(PID.TID 0000.0001) %MON dynstat_uvel_max             =   1.4856998453481E+01
(PID.TID 0000.0001) %MON dynstat_uvel_min             =  -1.4851483118023E+01
(PID.TID 0000.0001) %MON dynstat_uvel_mean            =   2.2079053316418E-01
(PID.TID 0000.0001) %MON dynstat_uvel_sd              =   4.8037593707811E+00
(PID.TID 0000.0001) %MON dynstat_uvel_del2            =   9.9080717239120E-04
(PID.TID 0000.0001) %MON dynstat_vvel_max             =   1.4861194936418E+01
(PID.TID 0000.0001) %MON dynstat_vvel_min             =  -1.4858967013987E+01
(PID.TID 0000.0001) %MON dynstat_vvel_mean            =   2.2058941326760E-01
(PID.TID 0000.0001) %MON dynstat_vvel_sd              =   4.8041680559569E+00
(PID.TID 0000.0001) %MON dynstat_vvel_del2            =   9.9487816790527E-04
(PID.TID 0000.0001) %MON dynstat_wvel_max             =   1.9297113594622E-01
(PID.TID 0000.0001) %MON dynstat_wvel_min             =  -1.6968073054865E-01
(PID.TID 0000.0001) %MON dynstat_wvel_mean            =   1.7611523421038E-17
(PID.TID 0000.0001) %MON dynstat_wvel_sd              =   4.6742663736604E-02
(PID.TID 0000.0001) %MON dynstat_wvel_del2            =   5.1609106830260E-05
(PID.TID 0000.0001) %MON dynstat_theta_max            =   1.1546770285154E+03
(PID.TID 0000.0001) %MON dynstat_theta_min            =   2.5492118629945E+02
(PID.TID 0000.0001) %MON dynstat_theta_mean           =   3.2779374719077E+02
(PID.TID 0000.0001) %MON dynstat_theta_sd             =   9.0415429405020E+01
(PID.TID 0000.0001) %MON dynstat_theta_del2           =   6.0895781101590E-04
(PID.TID 0000.0001) %MON dynstat_salt_max             =   2.0315240261530E-02
(PID.TID 0000.0001) %MON dynstat_salt_min             =   0.0000000000000E+00
(PID.TID 0000.0001) %MON dynstat_salt_mean            =   1.7971660206586E-03
(PID.TID 0000.0001) %MON dynstat_salt_sd              =   3.7993698216478E-03
(PID.TID 0000.0001) %MON dynstat_salt_del2            =   1.4912987865969E-07
(PID.TID 0000.0001) %MON trAdv_CFL_u_max              =   3.7050239541289E-02
(PID.TID 0000.0001) %MON trAdv_CFL_v_max              =   3.7051814110533E-02
(PID.TID 0000.0001) %MON trAdv_CFL_w_max              =   7.4493029643395E-03
(PID.TID 0000.0001) %MON advcfl_uvel_max              =   4.3532105229479E-02
(PID.TID 0000.0001) %MON advcfl_vvel_max              =   4.3533964302276E-02
(PID.TID 0000.0001) %MON advcfl_wvel_max              =   7.4378596296188E-03
(PID.TID 0000.0001) %MON advcfl_W_hf_max              =   7.4493029643395E-03
(PID.TID 0000.0001) %MON am_eta_mean                  =  -3.9581081113985E+10
(PID.TID 0000.0001) %MON am_uZo_mean                  =   3.9558678232297E+10
(PID.TID 0000.0001) %MON am_tot_mean                  =  -2.2402881688339E+07
(PID.TID 0000.0001) %MON pe_b_mean                    =   1.1571088026381E+00
(PID.TID 0000.0001) %MON ke_max                       =   1.1268923140590E+02
(PID.TID 0000.0001) %MON ke_mean                      =   2.3126771475513E+01
(PID.TID 0000.0001) %MON ke_vol                       =   5.0986421042784E+19
(PID.TID 0000.0001) %MON vort_r_min                   =  -2.6242232597173E-06
(PID.TID 0000.0001) %MON vort_r_max                   =   2.6245670607565E-06
(PID.TID 0000.0001) %MON vort_a_mean                  =  -6.1283879344629E-20
(PID.TID 0000.0001) %MON vort_a_sd                    =   8.4385158761189E-05
(PID.TID 0000.0001) %MON vort_p_mean                  =  -6.3735217864646E-20
(PID.TID 0000.0001) %MON vort_p_sd                    =   8.4218666070173E-05
(PID.TID 0000.0001) %MON surfExpan_theta_mean         =  -3.0642036169511E+00
(PID.TID 0000.0001) %MON surfExpan_salt_mean          =  -2.8888913683376E-04
(PID.TID 0000.0001) %MON surfExpan_Heat_mean          =  -2.6962097428761E+02
(PID.TID 0000.0001) %MON En_Budget_T2PE_mean          =   3.2521645461611E+01
(PID.TID 0000.0001) // =======================================================
(PID.TID 0000.0001) // End MONITOR dynamic field statistics
(PID.TID 0000.0001) // =======================================================
 cg2d: Sum(rhs),rhsMax =  -7.45058059692383E-09  9.59701864669816E+03
(PID.TID 0000.0001)      cg2d_init_res =   4.38298963580503E+04
(PID.TID 0000.0001)      cg2d_iters(min,last) =      -1      13
(PID.TID 0000.0001)      cg2d_last_res =   7.72937149439932E-11
(PID.TID 0000.0001) // =======================================================
(PID.TID 0000.0001) // Begin MONITOR dynamic field statistics
(PID.TID 0000.0001) // =======================================================
(PID.TID 0000.0001) %MON time_tsnumber                =                    13
(PID.TID 0000.0001) %MON time_secondsf                =   4.6800000000000E+03
(PID.TID 0000.0001) %MON dynstat_eta_max              =   1.1681440982456E+03
(PID.TID 0000.0001) %MON dynstat_eta_min              =  -7.5859195683779E+02
(PID.TID 0000.0001) %MON dynstat_eta_mean             =   2.1422697344262E-14
(PID.TID 0000.0001) %MON dynstat_eta_sd               =   6.0545228071511E+02
(PID.TID 0000.0001) %MON dynstat_eta_del2             =   4.2894617873071E-01
(PID.TID 0000.0001) %MON dynstat_uvel_max             =   1.6007742079233E+01
(PID.TID 0000.0001) %MON dynstat_uvel_min             =  -1.6001330336893E+01
(PID.TID 0000.0001) %MON dynstat_uvel_mean            =   2.5709485174807E-01
(PID.TID 0000.0001) %MON dynstat_uvel_sd              =   5.1629273536593E+00
(PID.TID 0000.0001) %MON dynstat_uvel_del2            =   1.0579161191499E-03
(PID.TID 0000.0001) %MON dynstat_vvel_max             =   1.6012392342662E+01
(PID.TID 0000.0001) %MON dynstat_vvel_min             =  -1.6009879402534E+01
(PID.TID 0000.0001) %MON dynstat_vvel_mean            =   2.5686231431688E-01
(PID.TID 0000.0001) %MON dynstat_vvel_sd              =   5.1634099338473E+00
(PID.TID 0000.0001) %MON dynstat_vvel_del2            =   1.0631403955485E-03
(PID.TID 0000.0001) %MON dynstat_wvel_max             =   2.1546562410409E-01
(PID.TID 0000.0001) %MON dynstat_wvel_min             =  -1.8295045369928E-01
(PID.TID 0000.0001) %MON dynstat_wvel_mean            =   1.2579659586456E-18
(PID.TID 0000.0001) %MON dynstat_wvel_sd              =   5.0274400664474E-02
(PID.TID 0000.0001) %MON dynstat_wvel_del2            =   5.5232083551403E-05
(PID.TID 0000.0001) %MON dynstat_theta_max            =   1.1548519614937E+03
(PID.TID 0000.0001) %MON dynstat_theta_min            =   2.5490814813092E+02
(PID.TID 0000.0001) %MON dynstat_theta_mean           =   3.2778667086724E+02
(PID.TID 0000.0001) %MON dynstat_theta_sd             =   9.0419537710790E+01
(PID.TID 0000.0001) %MON dynstat_theta_del2           =   6.1658155177478E-04
(PID.TID 0000.0001) %MON dynstat_salt_max             =   2.0315248683069E-02
(PID.TID 0000.0001) %MON dynstat_salt_min             =   0.0000000000000E+00
(PID.TID 0000.0001) %MON dynstat_salt_mean            =   1.7972634014455E-03
(PID.TID 0000.0001) %MON dynstat_salt_sd              =   3.7994468346864E-03
(PID.TID 0000.0001) %MON dynstat_salt_del2            =   1.5001268162605E-07
(PID.TID 0000.0001) %MON trAdv_CFL_u_max              =   4.0423306915451E-02
(PID.TID 0000.0001) %MON trAdv_CFL_v_max              =   4.0424888627999E-02
(PID.TID 0000.0001) %MON trAdv_CFL_w_max              =   8.2758457190474E-03
(PID.TID 0000.0001) %MON advcfl_uvel_max              =   4.7105385055682E-02
(PID.TID 0000.0001) %MON advcfl_vvel_max              =   4.7107312469735E-02
(PID.TID 0000.0001) %MON advcfl_wvel_max              =   8.3048848691082E-03
(PID.TID 0000.0001) %MON advcfl_W_hf_max              =   8.2758457190474E-03
(PID.TID 0000.0001) %MON am_eta_mean                  =  -4.6469609683608E+10
(PID.TID 0000.0001) %MON am_uZo_mean                  =   4.6439871682045E+10
(PID.TID 0000.0001) %MON am_tot_mean                  =  -2.9738001563385E+07
(PID.TID 0000.0001) %MON pe_b_mean                    =   1.5525352667271E+00
(PID.TID 0000.0001) %MON ke_max                       =   1.3070534106786E+02
(PID.TID 0000.0001) %MON ke_mean                      =   2.6724348507711E+01
(PID.TID 0000.0001) %MON ke_vol                       =   5.0986421042785E+19
(PID.TID 0000.0001) %MON vort_r_min                   =  -3.0191674975421E-06
(PID.TID 0000.0001) %MON vort_r_max                   =   3.0195826002313E-06
(PID.TID 0000.0001) %MON vort_a_mean                  =   1.9120570355524E-19
(PID.TID 0000.0001) %MON vort_a_sd                    =   8.4415702527585E-05
(PID.TID 0000.0001) %MON vort_p_mean                  =   1.8875429083943E-19
(PID.TID 0000.0001) %MON vort_p_sd                    =   8.4220073783534E-05
(PID.TID 0000.0001) %MON surfExpan_theta_mean         =  -3.2677005353177E+00
(PID.TID 0000.0001) %MON surfExpan_salt_mean          =  -3.0890826036986E-04
(PID.TID 0000.0001) %MON surfExpan_Heat_mean          =  -2.8768443101049E+02
(PID.TID 0000.0001) %MON En_Budget_T2PE_mean          =   3.4927190492048E+01
(PID.TID 0000.0001) // =======================================================
(PID.TID 0000.0001) // End MONITOR dynamic field statistics
(PID.TID 0000.0001) // =======================================================
 cg2d: Sum(rhs),rhsMax =  -1.86264514923096E-09  1.08764557546881E+04
(PID.TID 0000.0001)      cg2d_init_res =   4.65079290454913E+04
(PID.TID 0000.0001)      cg2d_iters(min,last) =      -1      13
(PID.TID 0000.0001)      cg2d_last_res =   9.16263744954713E-11
(PID.TID 0000.0001) // =======================================================
(PID.TID 0000.0001) // Begin MONITOR dynamic field statistics
(PID.TID 0000.0001) // =======================================================
(PID.TID 0000.0001) %MON time_tsnumber                =                    14
(PID.TID 0000.0001) %MON time_secondsf                =   5.0400000000000E+03
(PID.TID 0000.0001) %MON dynstat_eta_max              =   1.3260284154562E+03
(PID.TID 0000.0001) %MON dynstat_eta_min              =  -8.6863488497237E+02
(PID.TID 0000.0001) %MON dynstat_eta_mean             =   0.0000000000000E+00
(PID.TID 0000.0001) %MON dynstat_eta_sd               =   6.9327102848808E+02
(PID.TID 0000.0001) %MON dynstat_eta_del2             =   4.5840287054879E-01
(PID.TID 0000.0001) %MON dynstat_uvel_max             =   1.7142110719516E+01
(PID.TID 0000.0001) %MON dynstat_uvel_min             =  -1.7135560209917E+01
(PID.TID 0000.0001) %MON dynstat_uvel_mean            =   2.9565580195648E-01
(PID.TID 0000.0001) %MON dynstat_uvel_sd              =   5.5132660099524E+00
(PID.TID 0000.0001) %MON dynstat_uvel_del2            =   1.1226299566328E-03
(PID.TID 0000.0001) %MON dynstat_vvel_max             =   1.7147039236991E+01
(PID.TID 0000.0001) %MON dynstat_vvel_min             =  -1.7144321654646E+01
(PID.TID 0000.0001) %MON dynstat_vvel_mean            =   2.9538939579809E-01
(PID.TID 0000.0001) %MON dynstat_vvel_sd              =   5.5138279198503E+00
(PID.TID 0000.0001) %MON dynstat_vvel_del2            =   1.1291929907173E-03
(PID.TID 0000.0001) %MON dynstat_wvel_max             =   2.3822298459150E-01
(PID.TID 0000.0001) %MON dynstat_wvel_min             =  -1.9557942564109E-01
(PID.TID 0000.0001) %MON dynstat_wvel_mean            =  -3.7738978759368E-17
(PID.TID 0000.0001) %MON dynstat_wvel_sd              =   5.3743737304582E-02
(PID.TID 0000.0001) %MON dynstat_wvel_del2            =   5.8886345790426E-05
(PID.TID 0000.0001) %MON dynstat_theta_max            =   1.1550275281763E+03
(PID.TID 0000.0001) %MON dynstat_theta_min            =   2.5489510480354E+02
(PID.TID 0000.0001) %MON dynstat_theta_mean           =   3.2777952741690E+02
(PID.TID 0000.0001) %MON dynstat_theta_sd             =   9.0423745983987E+01
(PID.TID 0000.0001) %MON dynstat_theta_del2           =   6.2577258729114E-04
(PID.TID 0000.0001) %MON dynstat_salt_max             =   2.0315257514897E-02
(PID.TID 0000.0001) %MON dynstat_salt_min             =   0.0000000000000E+00
(PID.TID 0000.0001) %MON dynstat_salt_mean            =   1.7973569811766E-03
(PID.TID 0000.0001) %MON dynstat_salt_sd              =   3.7995201223420E-03
(PID.TID 0000.0001) %MON dynstat_salt_del2            =   1.5067985378342E-07
(PID.TID 0000.0001) %MON trAdv_CFL_u_max              =   4.3807595636348E-02
(PID.TID 0000.0001) %MON trAdv_CFL_v_max              =   4.3809134763844E-02
(PID.TID 0000.0001) %MON trAdv_CFL_w_max              =   9.1368176155121E-03
(PID.TID 0000.0001) %MON advcfl_uvel_max              =   5.0627779042600E-02
(PID.TID 0000.0001) %MON advcfl_vvel_max              =   5.0629726392813E-02
(PID.TID 0000.0001) %MON advcfl_wvel_max              =   9.1820422326487E-03
(PID.TID 0000.0001) %MON advcfl_W_hf_max              =   9.1368176155121E-03
(PID.TID 0000.0001) %MON am_eta_mean                  =  -5.3831230232485E+10
(PID.TID 0000.0001) %MON am_uZo_mean                  =   5.3792913204525E+10
(PID.TID 0000.0001) %MON am_tot_mean                  =  -3.8317027959976E+07
(PID.TID 0000.0001) %MON pe_b_mean                    =   2.0355779526375E+00
(PID.TID 0000.0001) %MON ke_max                       =   1.4969049012632E+02
(PID.TID 0000.0001) %MON ke_mean                      =   3.0486533837287E+01
(PID.TID 0000.0001) %MON ke_vol                       =   5.0986421042784E+19
(PID.TID 0000.0001) %MON vort_r_min                   =  -3.4340996594905E-06
(PID.TID 0000.0001) %MON vort_r_max                   =   3.4345808356779E-06
(PID.TID 0000.0001) %MON vort_a_mean                  =   9.3151496603836E-20
(PID.TID 0000.0001) %MON vort_a_sd                    =   8.4448289327056E-05
(PID.TID 0000.0001) %MON vort_p_mean                  =   9.3151463837852E-20
(PID.TID 0000.0001) %MON vort_p_sd                    =   8.4221472659597E-05
(PID.TID 0000.0001) %MON surfExpan_theta_mean         =  -3.4600423699635E+00
(PID.TID 0000.0001) %MON surfExpan_salt_mean          =  -3.2803186079104E-04
(PID.TID 0000.0001) %MON surfExpan_Heat_mean          =  -3.0479552242164E+02
(PID.TID 0000.0001) %MON En_Budget_T2PE_mean          =   3.7267153247239E+01
(PID.TID 0000.0001) // =======================================================
(PID.TID 0000.0001) // End MONITOR dynamic field statistics
(PID.TID 0000.0001) // =======================================================
 cg2d: Sum(rhs),rhsMax =   0.00000000000000E+00  1.22124971344186E+04
(PID.TID 0000.0001)      cg2d_init_res =   4.90454429592556E+04
(PID.TID 0000.0001)      cg2d_iters(min,last) =      -1      13
(PID.TID 0000.0001)      cg2d_last_res =   1.04370187584235E-10
(PID.TID 0000.0001) // =======================================================
(PID.TID 0000.0001) // Begin MONITOR dynamic field statistics
(PID.TID 0000.0001) // =======================================================
(PID.TID 0000.0001) %MON time_tsnumber                =                    15
(PID.TID 0000.0001) %MON time_secondsf                =   5.4000000000000E+03
(PID.TID 0000.0001) %MON dynstat_eta_max              =   1.4910616208798E+03
(PID.TID 0000.0001) %MON dynstat_eta_min              =  -9.8466864446507E+02
(PID.TID 0000.0001) %MON dynstat_eta_mean             =   4.2845394688523E-14
(PID.TID 0000.0001) %MON dynstat_eta_sd               =   7.8588080199172E+02
(PID.TID 0000.0001) %MON dynstat_eta_del2             =   4.8699042977528E-01
(PID.TID 0000.0001) %MON dynstat_uvel_max             =   1.8252447104748E+01
(PID.TID 0000.0001) %MON dynstat_uvel_min             =  -1.8245007981407E+01
(PID.TID 0000.0001) %MON dynstat_uvel_mean            =   3.3634492980809E-01
(PID.TID 0000.0001) %MON dynstat_uvel_sd              =   5.8543556116224E+00
(PID.TID 0000.0001) %MON dynstat_uvel_del2            =   1.1848664226848E-03
(PID.TID 0000.0001) %MON dynstat_vvel_max             =   1.8257739940484E+01
(PID.TID 0000.0001) %MON dynstat_vvel_min             =  -1.8254757258175E+01
(PID.TID 0000.0001) %MON dynstat_vvel_mean            =   3.3604168870504E-01
(PID.TID 0000.0001) %MON dynstat_vvel_sd              =   5.8550024236098E+00
(PID.TID 0000.0001) %MON dynstat_vvel_del2            =   1.1929615496463E-03
(PID.TID 0000.0001) %MON dynstat_wvel_max             =   2.6104794689177E-01
(PID.TID 0000.0001) %MON dynstat_wvel_min             =  -2.0747302971972E-01
(PID.TID 0000.0001) %MON dynstat_wvel_mean            =  -7.1704059642799E-17
(PID.TID 0000.0001) %MON dynstat_wvel_sd              =   5.7146568071396E-02
(PID.TID 0000.0001) %MON dynstat_wvel_del2            =   6.2545469987019E-05
(PID.TID 0000.0001) %MON dynstat_theta_max            =   1.1551879527481E+03
(PID.TID 0000.0001) %MON dynstat_theta_min            =   2.5488205560582E+02
(PID.TID 0000.0001) %MON dynstat_theta_mean           =   3.2777231135531E+02
(PID.TID 0000.0001) %MON dynstat_theta_sd             =   9.0428056988820E+01
(PID.TID 0000.0001) %MON dynstat_theta_del2           =   6.3627698143326E-04
(PID.TID 0000.0001) %MON dynstat_salt_max             =   2.0315266770694E-02
(PID.TID 0000.0001) %MON dynstat_salt_min             =   0.0000000000000E+00
(PID.TID 0000.0001) %MON dynstat_salt_mean            =   1.7974478724620E-03
(PID.TID 0000.0001) %MON dynstat_salt_sd              =   3.7995890776158E-03
(PID.TID 0000.0001) %MON dynstat_salt_del2            =   1.5136476186793E-07
(PID.TID 0000.0001) %MON trAdv_CFL_u_max              =   4.7196046598837E-02
(PID.TID 0000.0001) %MON trAdv_CFL_v_max              =   4.7197493517134E-02
(PID.TID 0000.0001) %MON trAdv_CFL_w_max              =   9.9971232983826E-03
(PID.TID 0000.0001) %MON advcfl_uvel_max              =   5.4090244588785E-02
(PID.TID 0000.0001) %MON advcfl_vvel_max              =   5.4092161192554E-02
(PID.TID 0000.0001) %MON advcfl_wvel_max              =   1.0061805233516E-02
(PID.TID 0000.0001) %MON advcfl_W_hf_max              =   9.9971232983826E-03
(PID.TID 0000.0001) %MON am_eta_mean                  =  -6.1643526735420E+10
(PID.TID 0000.0001) %MON am_uZo_mean                  =   6.1595334419379E+10
(PID.TID 0000.0001) %MON am_tot_mean                  =  -4.8192316040543E+07
(PID.TID 0000.0001) %MON pe_b_mean                    =   2.6157425348636E+00
(PID.TID 0000.0001) %MON ke_max                       =   1.6954824396287E+02
(PID.TID 0000.0001) %MON ke_mean                      =   3.4390292468053E+01
(PID.TID 0000.0001) %MON ke_vol                       =   5.0986421042785E+19
(PID.TID 0000.0001) %MON vort_r_min                   =  -3.8676339038089E-06
(PID.TID 0000.0001) %MON vort_r_max                   =   3.8681750025611E-06
(PID.TID 0000.0001) %MON vort_a_mean                  =   3.4318972432992E-20
(PID.TID 0000.0001) %MON vort_a_sd                    =   8.4482836830080E-05
(PID.TID 0000.0001) %MON vort_p_mean                  =   3.4318958638642E-20
(PID.TID 0000.0001) %MON vort_p_sd                    =   8.4222865883546E-05
(PID.TID 0000.0001) %MON surfExpan_theta_mean         =  -3.6406937112580E+00
(PID.TID 0000.0001) %MON surfExpan_salt_mean          =  -3.4620941329719E-04
(PID.TID 0000.0001) %MON surfExpan_Heat_mean          =  -3.2090653917162E+02
(PID.TID 0000.0001) %MON En_Budget_T2PE_mean          =   3.9538288876910E+01
(PID.TID 0000.0001) // =======================================================
(PID.TID 0000.0001) // End MONITOR dynamic field statistics
(PID.TID 0000.0001) // =======================================================
 cg2d: Sum(rhs),rhsMax =   0.00000000000000E+00  1.36021798347703E+04
(PID.TID 0000.0001)      cg2d_init_res =   5.14353184022603E+04
(PID.TID 0000.0001)      cg2d_iters(min,last) =      -1      13
(PID.TID 0000.0001)      cg2d_last_res =   1.15758257185134E-10
(PID.TID 0000.0001) // =======================================================
(PID.TID 0000.0001) // Begin MONITOR dynamic field statistics
(PID.TID 0000.0001) // =======================================================
(PID.TID 0000.0001) %MON time_tsnumber                =                    16
(PID.TID 0000.0001) %MON time_secondsf                =   5.7600000000000E+03
(PID.TID 0000.0001) %MON dynstat_eta_max              =   1.6628591838651E+03
(PID.TID 0000.0001) %MON dynstat_eta_min              =  -1.1063262302441E+03
(PID.TID 0000.0001) %MON dynstat_eta_mean             =  -2.1422697344262E-13
(PID.TID 0000.0001) %MON dynstat_eta_sd               =   8.8300101782195E+02
(PID.TID 0000.0001) %MON dynstat_eta_del2             =   5.1461792879867E-01
(PID.TID 0000.0001) %MON dynstat_uvel_max             =   1.9335174094468E+01
(PID.TID 0000.0001) %MON dynstat_uvel_min             =  -1.9326801269466E+01
(PID.TID 0000.0001) %MON dynstat_uvel_mean            =   3.7902815180630E-01
(PID.TID 0000.0001) %MON dynstat_uvel_sd              =   6.1858127028646E+00
(PID.TID 0000.0001) %MON dynstat_uvel_del2            =   1.2446087380554E-03
(PID.TID 0000.0001) %MON dynstat_vvel_max             =   1.9340787496946E+01
(PID.TID 0000.0001) %MON dynstat_vvel_min             =  -1.9337548105297E+01
(PID.TID 0000.0001) %MON dynstat_vvel_mean            =   3.7868443325793E-01
(PID.TID 0000.0001) %MON dynstat_vvel_sd              =   6.1865501034160E+00
(PID.TID 0000.0001) %MON dynstat_vvel_del2            =   1.2544301537376E-03
(PID.TID 0000.0001) %MON dynstat_wvel_max             =   2.8376013116279E-01
(PID.TID 0000.0001) %MON dynstat_wvel_min             =  -2.1854085533175E-01
(PID.TID 0000.0001) %MON dynstat_wvel_mean            =   8.0509821353318E-17
(PID.TID 0000.0001) %MON dynstat_wvel_sd              =   6.0478804115900E-02
(PID.TID 0000.0001) %MON dynstat_wvel_del2            =   6.6181406631457E-05
(PID.TID 0000.0001) %MON dynstat_theta_max            =   1.1553298174153E+03
(PID.TID 0000.0001) %MON dynstat_theta_min            =   2.5486899993116E+02
(PID.TID 0000.0001) %MON dynstat_theta_mean           =   3.2776502036193E+02
(PID.TID 0000.0001) %MON dynstat_theta_sd             =   9.0432470767061E+01
(PID.TID 0000.0001) %MON dynstat_theta_del2           =   6.4715830244715E-04
(PID.TID 0000.0001) %MON dynstat_salt_max             =   2.0315276460904E-02
(PID.TID 0000.0001) %MON dynstat_salt_min             =   0.0000000000000E+00
(PID.TID 0000.0001) %MON dynstat_salt_mean            =   1.7975361169293E-03
(PID.TID 0000.0001) %MON dynstat_salt_sd              =   3.7996534443553E-03
(PID.TID 0000.0001) %MON dynstat_salt_del2            =   1.5204882764806E-07
(PID.TID 0000.0001) %MON trAdv_CFL_u_max              =   5.0581734234798E-02
(PID.TID 0000.0001) %MON trAdv_CFL_v_max              =   5.0583041201310E-02
(PID.TID 0000.0001) %MON trAdv_CFL_w_max              =   1.0849681124980E-02
(PID.TID 0000.0001) %MON advcfl_uvel_max              =   5.7484203204783E-02
(PID.TID 0000.0001) %MON advcfl_vvel_max              =   5.7486038254132E-02
(PID.TID 0000.0001) %MON advcfl_wvel_max              =   1.0937221329615E-02
(PID.TID 0000.0001) %MON advcfl_W_hf_max              =   1.0849681124980E-02
(PID.TID 0000.0001) %MON am_eta_mean                  =  -6.9882803456296E+10
(PID.TID 0000.0001) %MON am_uZo_mean                  =   6.9823394177064E+10
(PID.TID 0000.0001) %MON am_tot_mean                  =  -5.9409279231644E+07
(PID.TID 0000.0001) %MON pe_b_mean                    =   3.3022050982124E+00
(PID.TID 0000.0001) %MON ke_max                       =   1.9017955664551E+02
(PID.TID 0000.0001) %MON ke_mean                      =   3.8412372608365E+01
(PID.TID 0000.0001) %MON ke_vol                       =   5.0986421042785E+19
(PID.TID 0000.0001) %MON vort_r_min                   =  -4.3184258464333E-06
(PID.TID 0000.0001) %MON vort_r_max                   =   4.3190201021038E-06
(PID.TID 0000.0001) %MON vort_a_mean                  =   3.6770327606777E-20
(PID.TID 0000.0001) %MON vort_a_sd                    =   8.4519257365611E-05
(PID.TID 0000.0001) %MON vort_p_mean                  =   3.6770310865505E-20
(PID.TID 0000.0001) %MON vort_p_sd                    =   8.4224256901221E-05
(PID.TID 0000.0001) %MON surfExpan_theta_mean         =  -3.8091620966535E+00
(PID.TID 0000.0001) %MON surfExpan_salt_mean          =  -3.6339324931381E-04
(PID.TID 0000.0001) %MON surfExpan_Heat_mean          =  -3.3597313974346E+02
(PID.TID 0000.0001) %MON En_Budget_T2PE_mean          =   4.1737541180702E+01
(PID.TID 0000.0001) // =======================================================
(PID.TID 0000.0001) // End MONITOR dynamic field statistics
(PID.TID 0000.0001) // =======================================================
(PID.TID 0000.0001)   Exporting atmospheric surf fluxes at iter=        16
(PID.TID 0000.0001)   Importing  oceanic surface fields at iter=        16
 cg2d: Sum(rhs),rhsMax =   1.86264514923096E-09  1.50419731932176E+04
(PID.TID 0000.0001)      cg2d_init_res =   5.36706007923490E+04
(PID.TID 0000.0001)      cg2d_iters(min,last) =      -1      13
(PID.TID 0000.0001)      cg2d_last_res =   1.26236503344742E-10
(PID.TID 0000.0001) // =======================================================
(PID.TID 0000.0001) // Begin MONITOR dynamic field statistics
(PID.TID 0000.0001) // =======================================================
(PID.TID 0000.0001) %MON time_tsnumber                =                    17
(PID.TID 0000.0001) %MON time_secondsf                =   6.1200000000000E+03
(PID.TID 0000.0001) %MON dynstat_eta_max              =   1.8409930820609E+03
(PID.TID 0000.0001) %MON dynstat_eta_min              =  -1.2332186380269E+03
(PID.TID 0000.0001) %MON dynstat_eta_mean             =   3.8560855219671E-13
(PID.TID 0000.0001) %MON dynstat_eta_sd               =   9.8433892188402E+02
(PID.TID 0000.0001) %MON dynstat_eta_del2             =   5.4129593395957E-01
(PID.TID 0000.0001) %MON dynstat_uvel_max             =   2.0388123645414E+01
(PID.TID 0000.0001) %MON dynstat_uvel_min             =  -2.0378767612767E+01
(PID.TID 0000.0001) %MON dynstat_uvel_mean            =   4.2356625394778E-01
(PID.TID 0000.0001) %MON dynstat_uvel_sd              =   6.5072932583881E+00
(PID.TID 0000.0001) %MON dynstat_uvel_del2            =   1.3018902169985E-03
(PID.TID 0000.0001) %MON dynstat_vvel_max             =   2.0394012378542E+01
(PID.TID 0000.0001) %MON dynstat_vvel_min             =  -2.0390527392194E+01
(PID.TID 0000.0001) %MON dynstat_vvel_mean            =   4.2317754978480E-01
(PID.TID 0000.0001) %MON dynstat_vvel_sd              =   6.5081275873398E+00
(PID.TID 0000.0001) %MON dynstat_vvel_del2            =   1.3136321731783E-03
(PID.TID 0000.0001) %MON dynstat_wvel_max             =   3.0620596406963E-01
(PID.TID 0000.0001) %MON dynstat_wvel_min             =  -2.2869821820985E-01
(PID.TID 0000.0001) %MON dynstat_wvel_mean            =  -1.3837625545102E-17
(PID.TID 0000.0001) %MON dynstat_wvel_sd              =   6.3736397691961E-02
(PID.TID 0000.0001) %MON dynstat_wvel_del2            =   6.9767537212163E-05
(PID.TID 0000.0001) %MON dynstat_theta_max            =   1.1554586741195E+03
(PID.TID 0000.0001) %MON dynstat_theta_min            =   2.5485593800714E+02
(PID.TID 0000.0001) %MON dynstat_theta_mean           =   3.2775765499901E+02
(PID.TID 0000.0001) %MON dynstat_theta_sd             =   9.0436985913403E+01
(PID.TID 0000.0001) %MON dynstat_theta_del2           =   6.5720487337533E-04
(PID.TID 0000.0001) %MON dynstat_salt_max             =   2.0315287486940E-02
(PID.TID 0000.0001) %MON dynstat_salt_min             =   0.0000000000000E+00
(PID.TID 0000.0001) %MON dynstat_salt_mean            =   1.7976215786577E-03
(PID.TID 0000.0001) %MON dynstat_salt_sd              =   3.7997130213889E-03
(PID.TID 0000.0001) %MON dynstat_salt_del2            =   1.5266550968333E-07
(PID.TID 0000.0001) %MON trAdv_CFL_u_max              =   5.3957980674588E-02
(PID.TID 0000.0001) %MON trAdv_CFL_v_max              =   5.3959103029320E-02
(PID.TID 0000.0001) %MON trAdv_CFL_w_max              =   1.1688502027722E-02
(PID.TID 0000.0001) %MON advcfl_uvel_max              =   6.0831201912037E-02
(PID.TID 0000.0001) %MON advcfl_vvel_max              =   6.0832919686615E-02
(PID.TID 0000.0001) %MON advcfl_wvel_max              =   1.1802371206110E-02
(PID.TID 0000.0001) %MON advcfl_W_hf_max              =   1.1688502027722E-02
(PID.TID 0000.0001) %MON am_eta_mean                  =  -7.8524148669128E+10
(PID.TID 0000.0001) %MON am_uZo_mean                  =   7.8452141398138E+10
(PID.TID 0000.0001) %MON am_tot_mean                  =  -7.2007270989594E+07
(PID.TID 0000.0001) %MON pe_b_mean                    =   4.1036560317708E+00
(PID.TID 0000.0001) %MON ke_max                       =   2.1148432726787E+02
(PID.TID 0000.0001) %MON ke_mean                      =   4.2529538926829E+01
(PID.TID 0000.0001) %MON ke_vol                       =   5.0986421042785E+19
(PID.TID 0000.0001) %MON vort_r_min                   =  -4.7851394142002E-06
(PID.TID 0000.0001) %MON vort_r_max                   =   4.7857813974864E-06
(PID.TID 0000.0001) %MON vort_a_mean                  =   1.4708131042711E-19
(PID.TID 0000.0001) %MON vort_a_sd                    =   8.4557458218566E-05
(PID.TID 0000.0001) %MON vort_p_mean                  =   1.4462988126624E-19
(PID.TID 0000.0001) %MON vort_p_sd                    =   8.4225649587493E-05
(PID.TID 0000.0001) %MON surfExpan_theta_mean         =  -3.9650003049110E+00
(PID.TID 0000.0001) %MON surfExpan_salt_mean          =  -3.7953844531719E-04
(PID.TID 0000.0001) %MON surfExpan_Heat_mean          =  -3.4995455969025E+02
(PID.TID 0000.0001) %MON En_Budget_T2PE_mean          =   4.3862085580375E+01
(PID.TID 0000.0001) // =======================================================
(PID.TID 0000.0001) // End MONITOR dynamic field statistics
(PID.TID 0000.0001) // =======================================================
 cg2d: Sum(rhs),rhsMax =   2.23517417907715E-08  1.65281588054295E+04
(PID.TID 0000.0001)      cg2d_init_res =   5.57447598504568E+04
(PID.TID 0000.0001)      cg2d_iters(min,last) =      -1      13
(PID.TID 0000.0001)      cg2d_last_res =   1.35994467955482E-10
(PID.TID 0000.0001) // =======================================================
(PID.TID 0000.0001) // Begin MONITOR dynamic field statistics
(PID.TID 0000.0001) // =======================================================
(PID.TID 0000.0001) %MON time_tsnumber                =                    18
(PID.TID 0000.0001) %MON time_secondsf                =   6.4800000000000E+03
(PID.TID 0000.0001) %MON dynstat_eta_max              =   2.0250253498290E+03
(PID.TID 0000.0001) %MON dynstat_eta_min              =  -1.3649378485161E+03
(PID.TID 0000.0001) %MON dynstat_eta_mean             =   2.9991776281966E-13
(PID.TID 0000.0001) %MON dynstat_eta_sd               =   1.0895901364388E+03
(PID.TID 0000.0001) %MON dynstat_eta_del2             =   5.6706207248637E-01
(PID.TID 0000.0001) %MON dynstat_uvel_max             =   2.1409235104134E+01
(PID.TID 0000.0001) %MON dynstat_uvel_min             =  -2.1398836964972E+01
(PID.TID 0000.0001) %MON dynstat_uvel_mean            =   4.6981535783392E-01
(PID.TID 0000.0001) %MON dynstat_uvel_sd              =   6.8184919435167E+00
(PID.TID 0000.0001) %MON dynstat_uvel_del2            =   1.3567597213951E-03
(PID.TID 0000.0001) %MON dynstat_vvel_max             =   2.1415353692445E+01
(PID.TID 0000.0001) %MON dynstat_vvel_min             =  -2.1411636551458E+01
(PID.TID 0000.0001) %MON dynstat_vvel_mean            =   4.6937609603474E-01
(PID.TID 0000.0001) %MON dynstat_vvel_sd              =   6.8194297766652E+00
(PID.TID 0000.0001) %MON dynstat_vvel_del2            =   1.3706128658926E-03
(PID.TID 0000.0001) %MON dynstat_wvel_max             =   3.2826343979958E-01
(PID.TID 0000.0001) %MON dynstat_wvel_min             =  -2.3788460431762E-01
(PID.TID 0000.0001) %MON dynstat_wvel_mean            =  -1.6101964270664E-16
(PID.TID 0000.0001) %MON dynstat_wvel_sd              =   6.6915621157374E-02
(PID.TID 0000.0001) %MON dynstat_wvel_del2            =   7.3282814317915E-05
(PID.TID 0000.0001) %MON dynstat_theta_max            =   1.1555629924437E+03
(PID.TID 0000.0001) %MON dynstat_theta_min            =   2.5484286875216E+02
(PID.TID 0000.0001) %MON dynstat_theta_mean           =   3.2775021141831E+02
(PID.TID 0000.0001) %MON dynstat_theta_sd             =   9.0441601187451E+01
(PID.TID 0000.0001) %MON dynstat_theta_del2           =   6.6536475081294E-04
(PID.TID 0000.0001) %MON dynstat_salt_max             =   2.0315298960779E-02
(PID.TID 0000.0001) %MON dynstat_salt_min             =   0.0000000000000E+00
(PID.TID 0000.0001) %MON dynstat_salt_mean            =   1.7977041956118E-03
(PID.TID 0000.0001) %MON dynstat_salt_sd              =   3.7997671213615E-03
(PID.TID 0000.0001) %MON dynstat_salt_del2            =   1.5286430777037E-07
(PID.TID 0000.0001) %MON trAdv_CFL_u_max              =   5.7318433578098E-02
(PID.TID 0000.0001) %MON trAdv_CFL_v_max              =   5.7319330882522E-02
(PID.TID 0000.0001) %MON trAdv_CFL_w_max              =   1.2508868449654E-02
(PID.TID 0000.0001) %MON advcfl_uvel_max              =   6.4134553975404E-02
(PID.TID 0000.0001) %MON advcfl_vvel_max              =   6.4136108562159E-02
(PID.TID 0000.0001) %MON advcfl_wvel_max              =   1.2652552283495E-02
(PID.TID 0000.0001) %MON advcfl_W_hf_max              =   1.2508868449654E-02
(PID.TID 0000.0001) %MON am_eta_mean                  =  -8.7541501688530E+10
(PID.TID 0000.0001) %MON am_uZo_mean                  =   8.7455481210980E+10
(PID.TID 0000.0001) %MON am_tot_mean                  =  -8.6020477550491E+07
(PID.TID 0000.0001) %MON pe_b_mean                    =   5.0281469473481E+00
(PID.TID 0000.0001) %MON ke_max                       =   2.3336285661679E+02
(PID.TID 0000.0001) %MON ke_mean                      =   4.6718747626136E+01
(PID.TID 0000.0001) %MON ke_vol                       =   5.0986421042785E+19
(PID.TID 0000.0001) %MON vort_r_min                   =  -5.2664409432456E-06
(PID.TID 0000.0001) %MON vort_r_max                   =   5.2671248488831E-06
(PID.TID 0000.0001) %MON vort_a_mean                  =  -1.2256775868926E-20
(PID.TID 0000.0001) %MON vort_a_sd                    =   8.4597341311840E-05
(PID.TID 0000.0001) %MON vort_p_mean                  =  -1.4708122652311E-20
(PID.TID 0000.0001) %MON vort_p_sd                    =   8.4227047790343E-05
(PID.TID 0000.0001) %MON surfExpan_theta_mean         =  -4.1078059780740E+00
(PID.TID 0000.0001) %MON surfExpan_salt_mean          =  -3.9460286678255E-04
(PID.TID 0000.0001) %MON surfExpan_Heat_mean          =  -3.6281357497509E+02
(PID.TID 0000.0001) %MON En_Budget_T2PE_mean          =   4.5909273476290E+01
(PID.TID 0000.0001) // =======================================================
(PID.TID 0000.0001) // End MONITOR dynamic field statistics
(PID.TID 0000.0001) // =======================================================
 cg2d: Sum(rhs),rhsMax =   2.60770320892334E-08  1.80572279168775E+04
(PID.TID 0000.0001)      cg2d_init_res =   5.76518548156293E+04
(PID.TID 0000.0001)      cg2d_iters(min,last) =      -1      14
(PID.TID 0000.0001)      cg2d_last_res =   6.46831087033452E-12
(PID.TID 0000.0001) // =======================================================
(PID.TID 0000.0001) // Begin MONITOR dynamic field statistics
(PID.TID 0000.0001) // =======================================================
(PID.TID 0000.0001) %MON time_tsnumber                =                    19
(PID.TID 0000.0001) %MON time_secondsf                =   6.8400000000000E+03
(PID.TID 0000.0001) %MON dynstat_eta_max              =   2.2145422964943E+03
(PID.TID 0000.0001) %MON dynstat_eta_min              =  -1.5010654498646E+03
(PID.TID 0000.0001) %MON dynstat_eta_mean             =  -3.4276315750819E-13
(PID.TID 0000.0001) %MON dynstat_eta_sd               =   1.1984393828691E+03
(PID.TID 0000.0001) %MON dynstat_eta_del2             =   5.9194283837414E-01
(PID.TID 0000.0001) %MON dynstat_uvel_max             =   2.2396581923070E+01
(PID.TID 0000.0001) %MON dynstat_uvel_min             =  -2.2385068023709E+01
(PID.TID 0000.0001) %MON dynstat_uvel_mean            =   5.1762745609530E-01
(PID.TID 0000.0001) %MON dynstat_uvel_sd              =   7.1191454220868E+00
(PID.TID 0000.0001) %MON dynstat_uvel_del2            =   1.4092602704328E-03
(PID.TID 0000.0001) %MON dynstat_vvel_max             =   2.2402885776947E+01
(PID.TID 0000.0001) %MON dynstat_vvel_min             =  -2.2398951826085E+01
(PID.TID 0000.0001) %MON dynstat_vvel_mean            =   5.1713077390105E-01
(PID.TID 0000.0001) %MON dynstat_vvel_sd              =   7.1201947679840E+00
(PID.TID 0000.0001) %MON dynstat_vvel_del2            =   1.4254105990948E-03
(PID.TID 0000.0001) %MON dynstat_wvel_max             =   3.4984054735801E-01
(PID.TID 0000.0001) %MON dynstat_wvel_min             =  -2.4606092865158E-01
(PID.TID 0000.0001) %MON dynstat_wvel_mean            =   2.0630641721788E-16
(PID.TID 0000.0001) %MON dynstat_wvel_sd              =   7.0012974518255E-02
(PID.TID 0000.0001) %MON dynstat_wvel_del2            =   7.6710977529501E-05
(PID.TID 0000.0001) %MON dynstat_theta_max            =   1.1556426371953E+03
(PID.TID 0000.0001) %MON dynstat_theta_min            =   2.5482979192122E+02
(PID.TID 0000.0001) %MON dynstat_theta_mean           =   3.2774268828631E+02
(PID.TID 0000.0001) %MON dynstat_theta_sd             =   9.0446314275186E+01
(PID.TID 0000.0001) %MON dynstat_theta_del2           =   6.7111555475625E-04
(PID.TID 0000.0001) %MON dynstat_salt_max             =   2.0315310883599E-02
(PID.TID 0000.0001) %MON dynstat_salt_min             =   0.0000000000000E+00
(PID.TID 0000.0001) %MON dynstat_salt_mean            =   1.7977838289817E-03
(PID.TID 0000.0001) %MON dynstat_salt_sd              =   3.7998157315080E-03
(PID.TID 0000.0001) %MON dynstat_salt_del2            =   1.5329185047363E-07
(PID.TID 0000.0001) %MON trAdv_CFL_u_max              =   6.0657087220503E-02
(PID.TID 0000.0001) %MON trAdv_CFL_v_max              =   6.0657723901611E-02
(PID.TID 0000.0001) %MON trAdv_CFL_w_max              =   1.3307266316692E-02
(PID.TID 0000.0001) %MON advcfl_uvel_max              =   6.7356880711715E-02
(PID.TID 0000.0001) %MON advcfl_vvel_max              =   6.7358232261557E-02
(PID.TID 0000.0001) %MON advcfl_wvel_max              =   1.3484218099452E-02
(PID.TID 0000.0001) %MON advcfl_W_hf_max              =   1.3349703005373E-02
(PID.TID 0000.0001) %MON am_eta_mean                  =  -9.6907723413851E+10
(PID.TID 0000.0001) %MON am_uZo_mean                  =   9.6806244829411E+10
(PID.TID 0000.0001) %MON am_tot_mean                  =  -1.0147858443997E+08
(PID.TID 0000.0001) %MON pe_b_mean                    =   6.0829434598470E+00
(PID.TID 0000.0001) %MON ke_max                       =   2.5571694068364E+02
(PID.TID 0000.0001) %MON ke_mean                      =   5.0957383747418E+01
(PID.TID 0000.0001) %MON ke_vol                       =   5.0986421042785E+19
(PID.TID 0000.0001) %MON vort_r_min                   =  -5.7609689649513E-06
(PID.TID 0000.0001) %MON vort_r_max                   =   5.7616901115674E-06
(PID.TID 0000.0001) %MON vort_a_mean                  =  -1.3482453455818E-19
(PID.TID 0000.0001) %MON vort_a_sd                    =   8.4638803710578E-05
(PID.TID 0000.0001) %MON vort_p_mean                  =  -1.3482444939363E-19
(PID.TID 0000.0001) %MON vort_p_sd                    =   8.4228455672927E-05
(PID.TID 0000.0001) %MON surfExpan_theta_mean         =  -4.2372237184312E+00
(PID.TID 0000.0001) %MON surfExpan_salt_mean          =  -4.0854732854726E-04
(PID.TID 0000.0001) %MON surfExpan_Heat_mean          =  -3.7451671181833E+02
(PID.TID 0000.0001) %MON En_Budget_T2PE_mean          =   4.7876690233103E+01
(PID.TID 0000.0001) // =======================================================
(PID.TID 0000.0001) // End MONITOR dynamic field statistics
(PID.TID 0000.0001) // =======================================================
 cg2d: Sum(rhs),rhsMax =  -2.23517417907715E-08  1.96261523152283E+04
(PID.TID 0000.0001)      cg2d_init_res =   5.93865750060127E+04
(PID.TID 0000.0001)      cg2d_iters(min,last) =      -1      14
(PID.TID 0000.0001)      cg2d_last_res =   6.81219600003681E-12
(PID.TID 0000.0001) // =======================================================
(PID.TID 0000.0001) // Begin MONITOR dynamic field statistics
(PID.TID 0000.0001) // =======================================================
(PID.TID 0000.0001) %MON time_tsnumber                =                    20
(PID.TID 0000.0001) %MON time_secondsf                =   7.2000000000000E+03
(PID.TID 0000.0001) %MON dynstat_eta_max              =   2.4091760064222E+03
(PID.TID 0000.0001) %MON dynstat_eta_min              =  -1.6411515209752E+03
(PID.TID 0000.0001) %MON dynstat_eta_mean             =  -4.2845394688523E-13
(PID.TID 0000.0001) %MON dynstat_eta_sd               =   1.3105613682800E+03
(PID.TID 0000.0001) %MON dynstat_eta_del2             =   6.1595281738814E-01
(PID.TID 0000.0001) %MON dynstat_uvel_max             =   2.3374568443988E+01
(PID.TID 0000.0001) %MON dynstat_uvel_min             =  -2.3364949915513E+01
(PID.TID 0000.0001) %MON dynstat_uvel_mean            =   5.6685089778083E-01
(PID.TID 0000.0001) %MON dynstat_uvel_sd              =   7.4090340951537E+00
(PID.TID 0000.0001) %MON dynstat_uvel_del2            =   1.4594171107726E-03
(PID.TID 0000.0001) %MON dynstat_vvel_max             =   2.3381206445350E+01
(PID.TID 0000.0001) %MON dynstat_vvel_min             =  -2.3376755889050E+01
(PID.TID 0000.0001) %MON dynstat_vvel_mean            =   5.6628839580178E-01
(PID.TID 0000.0001) %MON dynstat_vvel_sd              =   7.4102034467220E+00
(PID.TID 0000.0001) %MON dynstat_vvel_del2            =   1.4780406230961E-03
(PID.TID 0000.0001) %MON dynstat_wvel_max             =   3.7086915837823E-01
(PID.TID 0000.0001) %MON dynstat_wvel_min             =  -2.5320642681145E-01
(PID.TID 0000.0001) %MON dynstat_wvel_mean            =  -6.5414229849571E-17
(PID.TID 0000.0001) %MON dynstat_wvel_sd              =   7.3025253953324E-02
(PID.TID 0000.0001) %MON dynstat_wvel_del2            =   8.0040608980395E-05
(PID.TID 0000.0001) %MON dynstat_theta_max            =   1.1557137382928E+03
(PID.TID 0000.0001) %MON dynstat_theta_min            =   2.5481670736848E+02
(PID.TID 0000.0001) %MON dynstat_theta_mean           =   3.2773508391496E+02
(PID.TID 0000.0001) %MON dynstat_theta_sd             =   9.0451122632555E+01
(PID.TID 0000.0001) %MON dynstat_theta_del2           =   6.7459735382437E-04
(PID.TID 0000.0001) %MON dynstat_salt_max             =   2.0315323254012E-02
(PID.TID 0000.0001) %MON dynstat_salt_min             =   0.0000000000000E+00
(PID.TID 0000.0001) %MON dynstat_salt_mean            =   1.7978606165149E-03
(PID.TID 0000.0001) %MON dynstat_salt_sd              =   3.7998584219046E-03
(PID.TID 0000.0001) %MON dynstat_salt_del2            =   1.5379647577865E-07
(PID.TID 0000.0001) %MON trAdv_CFL_u_max              =   6.3968240214530E-02
(PID.TID 0000.0001) %MON trAdv_CFL_v_max              =   6.3968585176953E-02
(PID.TID 0000.0001) %MON trAdv_CFL_w_max              =   1.4081143057692E-02
(PID.TID 0000.0001) %MON advcfl_uvel_max              =   7.0492070287196E-02
(PID.TID 0000.0001) %MON advcfl_vvel_max              =   7.0493183375739E-02
(PID.TID 0000.0001) %MON advcfl_wvel_max              =   1.4294742721216E-02
(PID.TID 0000.0001) %MON advcfl_W_hf_max              =   1.4177698190960E-02
(PID.TID 0000.0001) %MON am_eta_mean                  =  -1.0659466993824E+11
(PID.TID 0000.0001) %MON am_uZo_mean                  =   1.0647626246809E+11
(PID.TID 0000.0001) %MON am_tot_mean                  =  -1.1840747015303E+08
(PID.TID 0000.0001) %MON pe_b_mean                    =   7.2743862841855E+00
(PID.TID 0000.0001) %MON ke_max                       =   2.7845043126270E+02
(PID.TID 0000.0001) %MON ke_mean                      =   5.5223451915753E+01
(PID.TID 0000.0001) %MON ke_vol                       =   5.0986421042785E+19
(PID.TID 0000.0001) %MON vort_r_min                   =  -6.2673137568218E-06
(PID.TID 0000.0001) %MON vort_r_max                   =   6.3638528979051E-06
(PID.TID 0000.0001) %MON vort_a_mean                  =   1.2747046903683E-19
(PID.TID 0000.0001) %MON vort_a_sd                    =   8.4681737896464E-05
(PID.TID 0000.0001) %MON vort_p_mean                  =   1.2747038046156E-19
(PID.TID 0000.0001) %MON vort_p_sd                    =   8.4229877808441E-05
(PID.TID 0000.0001) %MON surfExpan_theta_mean         =  -4.3529454022467E+00
(PID.TID 0000.0001) %MON surfExpan_salt_mean          =  -4.2133555305261E-04
(PID.TID 0000.0001) %MON surfExpan_Heat_mean          =  -3.8503429116095E+02
(PID.TID 0000.0001) %MON En_Budget_T2PE_mean          =   4.9762147414380E+01
(PID.TID 0000.0001) // =======================================================
(PID.TID 0000.0001) // End MONITOR dynamic field statistics
(PID.TID 0000.0001) // =======================================================
 cg2d: Sum(rhs),rhsMax =   2.23517417907715E-08  2.12324444483810E+04
(PID.TID 0000.0001)      cg2d_init_res =   6.09441981753457E+04
(PID.TID 0000.0001)      cg2d_iters(min,last) =      -1      14
(PID.TID 0000.0001)      cg2d_last_res =   7.19061477314295E-12
(PID.TID 0000.0001) // =======================================================
(PID.TID 0000.0001) // Begin MONITOR dynamic field statistics
(PID.TID 0000.0001) // =======================================================
(PID.TID 0000.0001) %MON time_tsnumber                =                    21
(PID.TID 0000.0001) %MON time_secondsf                =   7.5600000000000E+03
(PID.TID 0000.0001) %MON dynstat_eta_max              =   2.6086054350378E+03
(PID.TID 0000.0001) %MON dynstat_eta_min              =  -1.7847483639587E+03
(PID.TID 0000.0001) %MON dynstat_eta_mean             =   5.5699013095080E-13
(PID.TID 0000.0001) %MON dynstat_eta_sd               =   1.4256217700533E+03
(PID.TID 0000.0001) %MON dynstat_eta_del2             =   6.3910844513774E-01
(PID.TID 0000.0001) %MON dynstat_uvel_max             =   2.4330189072743E+01
(PID.TID 0000.0001) %MON dynstat_uvel_min             =  -2.4319654453646E+01
(PID.TID 0000.0001) %MON dynstat_uvel_mean            =   6.1733092363739E-01
(PID.TID 0000.0001) %MON dynstat_uvel_sd              =   7.6879810695874E+00
(PID.TID 0000.0001) %MON dynstat_uvel_del2            =   1.5072039095596E-03
(PID.TID 0000.0001) %MON dynstat_vvel_max             =   2.4337128042707E+01
(PID.TID 0000.0001) %MON dynstat_vvel_min             =  -2.4332502855719E+01
(PID.TID 0000.0001) %MON dynstat_vvel_mean            =   6.1669245374638E-01
(PID.TID 0000.0001) %MON dynstat_vvel_sd              =   7.6892798410877E+00
(PID.TID 0000.0001) %MON dynstat_vvel_del2            =   1.5284679820013E-03
(PID.TID 0000.0001) %MON dynstat_wvel_max             =   3.9129697276128E-01
(PID.TID 0000.0001) %MON dynstat_wvel_min             =  -2.5931424075537E-01
(PID.TID 0000.0001) %MON dynstat_wvel_mean            =   1.8869489379684E-16
(PID.TID 0000.0001) %MON dynstat_wvel_sd              =   7.5949644345003E-02
(PID.TID 0000.0001) %MON dynstat_wvel_del2            =   8.3264396423635E-05
(PID.TID 0000.0001) %MON dynstat_theta_max            =   1.1558172240164E+03
(PID.TID 0000.0001) %MON dynstat_theta_min            =   2.5480361501290E+02
(PID.TID 0000.0001) %MON dynstat_theta_mean           =   3.2772739746436E+02
(PID.TID 0000.0001) %MON dynstat_theta_sd             =   9.0456022749617E+01
(PID.TID 0000.0001) %MON dynstat_theta_del2           =   6.7658244487441E-04
(PID.TID 0000.0001) %MON dynstat_salt_max             =   2.0315336068603E-02
(PID.TID 0000.0001) %MON dynstat_salt_min             =   0.0000000000000E+00
(PID.TID 0000.0001) %MON dynstat_salt_mean            =   1.7979343964058E-03
(PID.TID 0000.0001) %MON dynstat_salt_sd              =   3.7998947855371E-03
(PID.TID 0000.0001) %MON dynstat_salt_del2            =   1.5435721940781E-07
(PID.TID 0000.0001) %MON trAdv_CFL_u_max              =   6.7246410790052E-02
(PID.TID 0000.0001) %MON trAdv_CFL_v_max              =   6.7246436908636E-02
(PID.TID 0000.0001) %MON trAdv_CFL_w_max              =   1.4828594058252E-02
(PID.TID 0000.0001) %MON advcfl_uvel_max              =   7.3534563031301E-02
(PID.TID 0000.0001) %MON advcfl_vvel_max              =   7.3535406545566E-02
(PID.TID 0000.0001) %MON advcfl_wvel_max              =   1.5082110299150E-02
(PID.TID 0000.0001) %MON advcfl_W_hf_max              =   1.4993999926752E-02
(PID.TID 0000.0001) %MON am_eta_mean                  =  -1.1657326950503E+11
(PID.TID 0000.0001) %MON am_uZo_mean                  =   1.1643643954967E+11
(PID.TID 0000.0001) %MON am_tot_mean                  =  -1.3682995535793E+08
(PID.TID 0000.0001) %MON pe_b_mean                    =   8.6077624371166E+00
(PID.TID 0000.0001) %MON ke_max                       =   3.0146931736259E+02
(PID.TID 0000.0001) %MON ke_mean                      =   5.9495742225585E+01
(PID.TID 0000.0001) %MON ke_vol                       =   5.0986421042785E+19
(PID.TID 0000.0001) %MON vort_r_min                   =  -6.7840004679711E-06
(PID.TID 0000.0001) %MON vort_r_max                   =   7.0230088871717E-06
(PID.TID 0000.0001) %MON vort_a_mean                  =   1.6178944146982E-19
(PID.TID 0000.0001) %MON vort_a_sd                    =   8.4726030880713E-05
(PID.TID 0000.0001) %MON vort_p_mean                  =   1.5688661192581E-19
(PID.TID 0000.0001) %MON vort_p_sd                    =   8.4231318107656E-05
(PID.TID 0000.0001) %MON surfExpan_theta_mean         =  -4.4547098626541E+00
(PID.TID 0000.0001) %MON surfExpan_salt_mean          =  -4.3293449782085E-04
(PID.TID 0000.0001) %MON surfExpan_Heat_mean          =  -3.9434043490498E+02
(PID.TID 0000.0001) %MON En_Budget_T2PE_mean          =   5.1563665150497E+01
(PID.TID 0000.0001) // =======================================================
(PID.TID 0000.0001) // End MONITOR dynamic field statistics
(PID.TID 0000.0001) // =======================================================
 cg2d: Sum(rhs),rhsMax =  -9.31322574615479E-09  2.28739939188473E+04
(PID.TID 0000.0001)      cg2d_init_res =   6.23205307517103E+04
(PID.TID 0000.0001)      cg2d_iters(min,last) =      -1      14
(PID.TID 0000.0001)      cg2d_last_res =   7.60835744355044E-12
(PID.TID 0000.0001) // =======================================================
(PID.TID 0000.0001) // Begin MONITOR dynamic field statistics
(PID.TID 0000.0001) // =======================================================
(PID.TID 0000.0001) %MON time_tsnumber                =                    22
(PID.TID 0000.0001) %MON time_secondsf                =   7.9200000000000E+03
(PID.TID 0000.0001) %MON dynstat_eta_max              =   2.8125362082547E+03
(PID.TID 0000.0001) %MON dynstat_eta_min              =  -1.9314068966834E+03
(PID.TID 0000.0001) %MON dynstat_eta_mean             =  -2.9991776281966E-13
(PID.TID 0000.0001) %MON dynstat_eta_sd               =   1.5432782575927E+03
(PID.TID 0000.0001) %MON dynstat_eta_del2             =   6.6143880017680E-01
(PID.TID 0000.0001) %MON dynstat_uvel_max             =   2.5250550158171E+01
(PID.TID 0000.0001) %MON dynstat_uvel_min             =  -2.5238973618213E+01
(PID.TID 0000.0001) %MON dynstat_uvel_mean            =   6.6891017911886E-01
(PID.TID 0000.0001) %MON dynstat_uvel_sd              =   7.9558525743092E+00
(PID.TID 0000.0001) %MON dynstat_uvel_del2            =   1.5525919298643E-03
(PID.TID 0000.0001) %MON dynstat_vvel_max             =   2.5257777769142E+01
(PID.TID 0000.0001) %MON dynstat_vvel_min             =  -2.5252994952016E+01
(PID.TID 0000.0001) %MON dynstat_vvel_mean            =   6.6818357430080E-01
(PID.TID 0000.0001) %MON dynstat_vvel_sd              =   7.9572913339095E+00
(PID.TID 0000.0001) %MON dynstat_vvel_del2            =   1.5766537154817E-03
(PID.TID 0000.0001) %MON dynstat_wvel_max             =   4.1108003732751E-01
(PID.TID 0000.0001) %MON dynstat_wvel_min             =  -2.6438765790488E-01
(PID.TID 0000.0001) %MON dynstat_wvel_mean            =   1.9624268954871E-16
(PID.TID 0000.0001) %MON dynstat_wvel_sd              =   7.8783715718298E-02
(PID.TID 0000.0001) %MON dynstat_wvel_del2            =   8.6378798346247E-05
(PID.TID 0000.0001) %MON dynstat_theta_max            =   1.1559901877195E+03
(PID.TID 0000.0001) %MON dynstat_theta_min            =   2.5479051479108E+02
(PID.TID 0000.0001) %MON dynstat_theta_mean           =   3.2771962929255E+02
(PID.TID 0000.0001) %MON dynstat_theta_sd             =   9.0461010011757E+01
(PID.TID 0000.0001) %MON dynstat_theta_del2           =   6.7825706753568E-04
(PID.TID 0000.0001) %MON dynstat_salt_max             =   2.0315349322578E-02
(PID.TID 0000.0001) %MON dynstat_salt_min             =   0.0000000000000E+00
(PID.TID 0000.0001) %MON dynstat_salt_mean            =   1.7980048735292E-03
(PID.TID 0000.0001) %MON dynstat_salt_sd              =   3.7999247233069E-03
(PID.TID 0000.0001) %MON dynstat_salt_del2            =   1.5479981627406E-07
(PID.TID 0000.0001) %MON trAdv_CFL_u_max              =   7.0486237647728E-02
(PID.TID 0000.0001) %MON trAdv_CFL_v_max              =   7.0485920993992E-02
(PID.TID 0000.0001) %MON trAdv_CFL_w_max              =   1.5548074533696E-02
(PID.TID 0000.0001) %MON advcfl_uvel_max              =   7.6479195905948E-02
(PID.TID 0000.0001) %MON advcfl_vvel_max              =   7.6479742403815E-02
(PID.TID 0000.0001) %MON advcfl_wvel_max              =   1.5844626706414E-02
(PID.TID 0000.0001) %MON advcfl_W_hf_max              =   1.5795589312724E-02
(PID.TID 0000.0001) %MON am_eta_mean                  =  -1.2681360246408E+11
(PID.TID 0000.0001) %MON am_uZo_mean                  =   1.2665683591195E+11
(PID.TID 0000.0001) %MON am_tot_mean                  =  -1.5676655213742E+08
(PID.TID 0000.0001) %MON pe_b_mean                    =   1.0087187895799E+01
(PID.TID 0000.0001) %MON ke_max                       =   3.2468150639579E+02
(PID.TID 0000.0001) %MON ke_mean                      =   6.3753992835654E+01
(PID.TID 0000.0001) %MON ke_vol                       =   5.0986421042785E+19
(PID.TID 0000.0001) %MON vort_r_min                   =  -7.3094773833886E-06
(PID.TID 0000.0001) %MON vort_r_max                   =   7.7100027596390E-06
(PID.TID 0000.0001) %MON vort_a_mean                  =  -5.3929813823273E-20
(PID.TID 0000.0001) %MON vort_a_sd                    =   8.4771565805399E-05
(PID.TID 0000.0001) %MON vort_p_mean                  =  -5.3929769272257E-20
(PID.TID 0000.0001) %MON vort_p_sd                    =   8.4232781184183E-05
(PID.TID 0000.0001) %MON surfExpan_theta_mean         =  -4.5423028206438E+00
(PID.TID 0000.0001) %MON surfExpan_salt_mean          =  -4.4331435880621E-04
(PID.TID 0000.0001) %MON surfExpan_Heat_mean          =  -4.0241309678636E+02
(PID.TID 0000.0001) %MON En_Budget_T2PE_mean          =   5.3279456528010E+01
(PID.TID 0000.0001) // =======================================================
(PID.TID 0000.0001) // End MONITOR dynamic field statistics
(PID.TID 0000.0001) // =======================================================
 cg2d: Sum(rhs),rhsMax =   2.23517417907715E-08  2.45487278707168E+04
(PID.TID 0000.0001)      cg2d_init_res =   6.35118678078224E+04
(PID.TID 0000.0001)      cg2d_iters(min,last) =      -1      14
(PID.TID 0000.0001)      cg2d_last_res =   8.06702789784411E-12
(PID.TID 0000.0001) // =======================================================
(PID.TID 0000.0001) // Begin MONITOR dynamic field statistics
(PID.TID 0000.0001) // =======================================================
(PID.TID 0000.0001) %MON time_tsnumber                =                    23
(PID.TID 0000.0001) %MON time_secondsf                =   8.2800000000000E+03
(PID.TID 0000.0001) %MON dynstat_eta_max              =   3.0236632877965E+03
(PID.TID 0000.0001) %MON dynstat_eta_min              =  -2.0806879247482E+03
(PID.TID 0000.0001) %MON dynstat_eta_mean             =  -2.1422697344262E-13
(PID.TID 0000.0001) %MON dynstat_eta_sd               =   1.6631815098342E+03
(PID.TID 0000.0001) %MON dynstat_eta_del2             =   6.8298343373575E-01
(PID.TID 0000.0001) %MON dynstat_uvel_max             =   2.6175234394151E+01
(PID.TID 0000.0001) %MON dynstat_uvel_min             =  -2.6162659638355E+01
(PID.TID 0000.0001) %MON dynstat_uvel_mean            =   7.2142926711751E-01
(PID.TID 0000.0001) %MON dynstat_uvel_sd              =   8.2125627073700E+00
(PID.TID 0000.0001) %MON dynstat_uvel_del2            =   1.5955467495762E-03
(PID.TID 0000.0001) %MON dynstat_vvel_max             =   2.6175668877647E+01
(PID.TID 0000.0001) %MON dynstat_vvel_min             =  -2.6171177542462E+01
(PID.TID 0000.0001) %MON dynstat_vvel_mean            =   7.2060015834776E-01
(PID.TID 0000.0001) %MON dynstat_vvel_sd              =   8.2141527871799E+00
(PID.TID 0000.0001) %MON dynstat_vvel_del2            =   1.6225610927694E-03
(PID.TID 0000.0001) %MON dynstat_wvel_max             =   4.3017733275680E-01
(PID.TID 0000.0001) %MON dynstat_wvel_min             =  -2.6843788755706E-01
(PID.TID 0000.0001) %MON dynstat_wvel_mean            =   7.2962025601444E-17
(PID.TID 0000.0001) %MON dynstat_wvel_sd              =   8.1525150426528E-02
(PID.TID 0000.0001) %MON dynstat_wvel_del2            =   8.9380390957718E-05
(PID.TID 0000.0001) %MON dynstat_theta_max            =   1.1561548615175E+03
(PID.TID 0000.0001) %MON dynstat_theta_min            =   2.5477740660280E+02
(PID.TID 0000.0001) %MON dynstat_theta_mean           =   3.2771177893211E+02
(PID.TID 0000.0001) %MON dynstat_theta_sd             =   9.0466080056907E+01
(PID.TID 0000.0001) %MON dynstat_theta_del2           =   6.8090290577567E-04
(PID.TID 0000.0001) %MON dynstat_salt_max             =   2.0315363010436E-02
(PID.TID 0000.0001) %MON dynstat_salt_min             =   0.0000000000000E+00
(PID.TID 0000.0001) %MON dynstat_salt_mean            =   1.7980718981063E-03
(PID.TID 0000.0001) %MON dynstat_salt_sd              =   3.7999479531220E-03
(PID.TID 0000.0001) %MON dynstat_salt_del2            =   1.5537258907730E-07
(PID.TID 0000.0001) %MON trAdv_CFL_u_max              =   7.3682397641813E-02
(PID.TID 0000.0001) %MON trAdv_CFL_v_max              =   7.3681716053425E-02
(PID.TID 0000.0001) %MON trAdv_CFL_w_max              =   1.6238192874376E-02
(PID.TID 0000.0001) %MON advcfl_uvel_max              =   7.9321062768462E-02
(PID.TID 0000.0001) %MON advcfl_vvel_max              =   7.9321287468192E-02
(PID.TID 0000.0001) %MON advcfl_wvel_max              =   1.6580710898549E-02
(PID.TID 0000.0001) %MON advcfl_W_hf_max              =   1.6576891971888E-02
(PID.TID 0000.0001) %MON am_eta_mean                  =  -1.3728498425148E+11
(PID.TID 0000.0001) %MON am_uZo_mean                  =   1.3710674836432E+11
(PID.TID 0000.0001) %MON am_tot_mean                  =  -1.7823588716109E+08
(PID.TID 0000.0001) %MON pe_b_mean                    =   1.1715502781998E+01
(PID.TID 0000.0001) %MON ke_max                       =   3.4799656607247E+02
(PID.TID 0000.0001) %MON ke_mean                      =   6.7979108503020E+01
(PID.TID 0000.0001) %MON ke_vol                       =   5.0986421042784E+19
(PID.TID 0000.0001) %MON vort_r_min                   =  -7.8421114175386E-06
(PID.TID 0000.0001) %MON vort_r_max                   =   8.4231366817184E-06
(PID.TID 0000.0001) %MON vort_a_mean                  =  -9.8054206951406E-20
(PID.TID 0000.0001) %MON vort_a_sd                    =   8.4818221746213E-05
(PID.TID 0000.0001) %MON vort_p_mean                  =  -9.8054119323564E-20
(PID.TID 0000.0001) %MON vort_p_sd                    =   8.4234271917304E-05
(PID.TID 0000.0001) %MON surfExpan_theta_mean         =  -4.6155576371870E+00
(PID.TID 0000.0001) %MON surfExpan_salt_mean          =  -4.5244846725049E-04
(PID.TID 0000.0001) %MON surfExpan_Heat_mean          =  -4.0923417505776E+02
(PID.TID 0000.0001) %MON En_Budget_T2PE_mean          =   5.4908007245632E+01
(PID.TID 0000.0001) // =======================================================
(PID.TID 0000.0001) // End MONITOR dynamic field statistics
(PID.TID 0000.0001) // =======================================================
 cg2d: Sum(rhs),rhsMax =   1.11758708953857E-08  2.62541828245568E+04
(PID.TID 0000.0001)      cg2d_init_res =   6.45149888997252E+04
(PID.TID 0000.0001)      cg2d_iters(min,last) =      -1      14
(PID.TID 0000.0001)      cg2d_last_res =   8.56630450622135E-12
(PID.TID 0000.0001) // =======================================================
(PID.TID 0000.0001) // Begin MONITOR dynamic field statistics
(PID.TID 0000.0001) // =======================================================
(PID.TID 0000.0001) %MON time_tsnumber                =                    24
(PID.TID 0000.0001) %MON time_secondsf                =   8.6400000000000E+03
(PID.TID 0000.0001) %MON dynstat_eta_max              =   3.2385760982447E+03
(PID.TID 0000.0001) %MON dynstat_eta_min              =  -2.2321760118778E+03
(PID.TID 0000.0001) %MON dynstat_eta_mean             =  -2.9991776281966E-13
(PID.TID 0000.0001) %MON dynstat_eta_sd               =   1.7849762229398E+03
(PID.TID 0000.0001) %MON dynstat_eta_del2             =   7.0378240741638E-01
(PID.TID 0000.0001) %MON dynstat_uvel_max             =   2.7095678636546E+01
(PID.TID 0000.0001) %MON dynstat_uvel_min             =  -2.7081861520286E+01
(PID.TID 0000.0001) %MON dynstat_uvel_mean            =   7.7472727876013E-01
(PID.TID 0000.0001) %MON dynstat_uvel_sd              =   8.4580702442592E+00
(PID.TID 0000.0001) %MON dynstat_uvel_del2            =   1.6360153678266E-03
(PID.TID 0000.0001) %MON dynstat_vvel_max             =   2.7096025684105E+01
(PID.TID 0000.0001) %MON dynstat_vvel_min             =  -2.7091436506099E+01
(PID.TID 0000.0001) %MON dynstat_vvel_mean            =   7.7377891864492E-01
(PID.TID 0000.0001) %MON dynstat_vvel_sd              =   8.4598236628135E+00
(PID.TID 0000.0001) %MON dynstat_vvel_del2            =   1.6661358241108E-03
(PID.TID 0000.0001) %MON dynstat_wvel_max             =   4.4854792307399E-01
(PID.TID 0000.0001) %MON dynstat_wvel_min             =  -2.7148321734505E-01
(PID.TID 0000.0001) %MON dynstat_wvel_mean            =  -1.5095591503747E-17
(PID.TID 0000.0001) %MON dynstat_wvel_sd              =   8.4171996672844E-02
(PID.TID 0000.0001) %MON dynstat_wvel_del2            =   9.2267761437306E-05
(PID.TID 0000.0001) %MON dynstat_theta_max            =   1.1563313560802E+03
(PID.TID 0000.0001) %MON dynstat_theta_min            =   2.5476429025719E+02
(PID.TID 0000.0001) %MON dynstat_theta_mean           =   3.2770384576425E+02
(PID.TID 0000.0001) %MON dynstat_theta_sd             =   9.0471228426666E+01
(PID.TID 0000.0001) %MON dynstat_theta_del2           =   6.8554197454654E-04
(PID.TID 0000.0001) %MON dynstat_salt_max             =   2.0315377126616E-02
(PID.TID 0000.0001) %MON dynstat_salt_min             =   0.0000000000000E+00
(PID.TID 0000.0001) %MON dynstat_salt_mean            =   1.7981355495995E-03
(PID.TID 0000.0001) %MON dynstat_salt_sd              =   3.7999641827120E-03
(PID.TID 0000.0001) %MON dynstat_salt_del2            =   1.5596619188339E-07
(PID.TID 0000.0001) %MON trAdv_CFL_u_max              =   7.6829552949264E-02
(PID.TID 0000.0001) %MON trAdv_CFL_v_max              =   7.6828483630653E-02
(PID.TID 0000.0001) %MON trAdv_CFL_w_max              =   1.6897602307462E-02
(PID.TID 0000.0001) %MON advcfl_uvel_max              =   8.2055419208925E-02
(PID.TID 0000.0001) %MON advcfl_vvel_max              =   8.2055298333333E-02
(PID.TID 0000.0001) %MON advcfl_wvel_max              =   1.7294477339419E-02
(PID.TID 0000.0001) %MON advcfl_W_hf_max              =   1.7336336899712E-02
(PID.TID 0000.0001) %MON am_eta_mean                  =  -1.4795605089328E+11
(PID.TID 0000.0001) %MON am_uZo_mean                  =   1.4775479555853E+11
(PID.TID 0000.0001) %MON am_tot_mean                  =  -2.0125533475012E+08
(PID.TID 0000.0001) %MON pe_b_mean                    =   1.3494180218970E+01
(PID.TID 0000.0001) %MON ke_max                       =   3.7132563870537E+02
(PID.TID 0000.0001) %MON ke_mean                      =   7.2153252414756E+01
(PID.TID 0000.0001) %MON ke_vol                       =   5.0986421042785E+19
(PID.TID 0000.0001) %MON vort_r_min                   =  -8.3801916607642E-06
(PID.TID 0000.0001) %MON vort_r_max                   =   9.1605688758794E-06
(PID.TID 0000.0001) %MON vort_a_mean                  =   3.0641939672314E-19
(PID.TID 0000.0001) %MON vort_a_sd                    =   8.4865872284330E-05
(PID.TID 0000.0001) %MON vort_p_mean                  =   3.0641910183902E-19
(PID.TID 0000.0001) %MON vort_p_sd                    =   8.4235793786906E-05
(PID.TID 0000.0001) %MON surfExpan_theta_mean         =  -4.6743548746622E+00
(PID.TID 0000.0001) %MON surfExpan_salt_mean          =  -4.6031327954416E-04
(PID.TID 0000.0001) %MON surfExpan_Heat_mean          =  -4.1478951851572E+02
(PID.TID 0000.0001) %MON En_Budget_T2PE_mean          =   5.6448011339939E+01
(PID.TID 0000.0001) // =======================================================
(PID.TID 0000.0001) // End MONITOR dynamic field statistics
(PID.TID 0000.0001) // =======================================================
(PID.TID 0000.0001)   Exporting atmospheric surf fluxes at iter=        24
(PID.TID 0000.0001)   Importing  oceanic surface fields at iter=        24
 cg2d: Sum(rhs),rhsMax =   1.67638063430786E-08  2.79870896000687E+04
(PID.TID 0000.0001)      cg2d_init_res =   6.53271788956321E+04
(PID.TID 0000.0001)      cg2d_iters(min,last) =      -1      14
(PID.TID 0000.0001)      cg2d_last_res =   9.10469691875472E-12
(PID.TID 0000.0001) // =======================================================
(PID.TID 0000.0001) // Begin MONITOR dynamic field statistics
(PID.TID 0000.0001) // =======================================================
(PID.TID 0000.0001) %MON time_tsnumber                =                    25
(PID.TID 0000.0001) %MON time_secondsf                =   9.0000000000000E+03
(PID.TID 0000.0001) %MON dynstat_eta_max              =   3.4561873605482E+03
(PID.TID 0000.0001) %MON dynstat_eta_min              =  -2.3854326405663E+03
(PID.TID 0000.0001) %MON dynstat_eta_mean             =   3.4276315750819E-13
(PID.TID 0000.0001) %MON dynstat_eta_sd               =   1.9083021144096E+03
(PID.TID 0000.0001) %MON dynstat_eta_del2             =   7.2386463440241E-01
(PID.TID 0000.0001) %MON dynstat_uvel_max             =   2.7981972924921E+01
(PID.TID 0000.0001) %MON dynstat_uvel_min             =  -2.7966742584548E+01
(PID.TID 0000.0001) %MON dynstat_uvel_mean            =   8.2864233829200E-01
(PID.TID 0000.0001) %MON dynstat_uvel_sd              =   8.6923798672334E+00
(PID.TID 0000.0001) %MON dynstat_uvel_del2            =   1.6740096298410E-03
(PID.TID 0000.0001) %MON dynstat_vvel_max             =   2.7982224638042E+01
(PID.TID 0000.0001) %MON dynstat_vvel_min             =  -2.7977553824738E+01
(PID.TID 0000.0001) %MON dynstat_vvel_mean            =   8.2755546754744E-01
(PID.TID 0000.0001) %MON dynstat_vvel_sd              =   8.6943093735589E+00
(PID.TID 0000.0001) %MON dynstat_vvel_del2            =   1.7073821546800E-03
(PID.TID 0000.0001) %MON dynstat_wvel_max             =   4.6615079195607E-01
(PID.TID 0000.0001) %MON dynstat_wvel_min             =  -2.7354951543659E-01
(PID.TID 0000.0001) %MON dynstat_wvel_mean            =  -2.6165691939828E-16
(PID.TID 0000.0001) %MON dynstat_wvel_sd              =   8.6722587304398E-02
(PID.TID 0000.0001) %MON dynstat_wvel_del2            =   9.5041033696598E-05
(PID.TID 0000.0001) %MON dynstat_theta_max            =   1.1565151269457E+03
(PID.TID 0000.0001) %MON dynstat_theta_min            =   2.5474897638177E+02
(PID.TID 0000.0001) %MON dynstat_theta_mean           =   3.2769583224109E+02
(PID.TID 0000.0001) %MON dynstat_theta_sd             =   9.0476449496115E+01
(PID.TID 0000.0001) %MON dynstat_theta_del2           =   6.9269447940803E-04
(PID.TID 0000.0001) %MON dynstat_salt_max             =   2.0315392569894E-02
(PID.TID 0000.0001) %MON dynstat_salt_min             =   0.0000000000000E+00
(PID.TID 0000.0001) %MON dynstat_salt_mean            =   1.7981956894404E-03
(PID.TID 0000.0001) %MON dynstat_salt_sd              =   3.7999733331551E-03
(PID.TID 0000.0001) %MON dynstat_salt_del2            =   1.5656402573452E-07
(PID.TID 0000.0001) %MON trAdv_CFL_u_max              =   7.9922337809367E-02
(PID.TID 0000.0001) %MON trAdv_CFL_v_max              =   7.9920854405401E-02
(PID.TID 0000.0001) %MON trAdv_CFL_w_max              =   1.7524993462943E-02
(PID.TID 0000.0001) %MON advcfl_uvel_max              =   8.4677644543540E-02
(PID.TID 0000.0001) %MON advcfl_vvel_max              =   8.4677153157898E-02
(PID.TID 0000.0001) %MON advcfl_wvel_max              =   1.8021527181086E-02
(PID.TID 0000.0001) %MON advcfl_W_hf_max              =   1.8072463774719E-02
(PID.TID 0000.0001) %MON am_eta_mean                  =  -1.5879484720934E+11
(PID.TID 0000.0001) %MON am_uZo_mean                  =   1.5856900574871E+11
(PID.TID 0000.0001) %MON am_tot_mean                  =  -2.2584146062619E+08
(PID.TID 0000.0001) %MON pe_b_mean                    =   1.5423249997995E+01
(PID.TID 0000.0001) %MON ke_max                       =   3.9458165255096E+02
(PID.TID 0000.0001) %MON ke_mean                      =   7.6259989704856E+01
(PID.TID 0000.0001) %MON ke_vol                       =   5.0986421042785E+19
(PID.TID 0000.0001) %MON vort_r_min                   =  -8.9219399984896E-06
(PID.TID 0000.0001) %MON vort_r_max                   =   9.9203328984849E-06
(PID.TID 0000.0001) %MON vort_a_mean                  =   9.8054206951406E-21
(PID.TID 0000.0001) %MON vort_a_sd                    =   8.4914388365276E-05
(PID.TID 0000.0001) %MON vort_p_mean                  =   9.8054105750750E-21
(PID.TID 0000.0001) %MON vort_p_sd                    =   8.4237351405145E-05
(PID.TID 0000.0001) %MON surfExpan_theta_mean         =  -4.7186220150728E+00
(PID.TID 0000.0001) %MON surfExpan_salt_mean          =  -4.6688861703628E-04
(PID.TID 0000.0001) %MON surfExpan_Heat_mean          =  -4.1906895025307E+02
(PID.TID 0000.0001) %MON En_Budget_T2PE_mean          =   5.7898372420407E+01
(PID.TID 0000.0001) // =======================================================
(PID.TID 0000.0001) // End MONITOR dynamic field statistics
(PID.TID 0000.0001) // =======================================================
 cg2d: Sum(rhs),rhsMax =   0.00000000000000E+00  2.97430594024827E+04
(PID.TID 0000.0001)      cg2d_init_res =   6.59462614441475E+04
(PID.TID 0000.0001)      cg2d_iters(min,last) =      -1      14
(PID.TID 0000.0001)      cg2d_last_res =   9.68044995836187E-12
(PID.TID 0000.0001) // =======================================================
(PID.TID 0000.0001) // Begin MONITOR dynamic field statistics
(PID.TID 0000.0001) // =======================================================
(PID.TID 0000.0001) %MON time_tsnumber                =                    26
(PID.TID 0000.0001) %MON time_secondsf                =   9.3600000000000E+03
(PID.TID 0000.0001) %MON dynstat_eta_max              =   3.6757883941148E+03
(PID.TID 0000.0001) %MON dynstat_eta_min              =  -2.5400562867205E+03
(PID.TID 0000.0001) %MON dynstat_eta_mean             =   5.9983552563933E-13
(PID.TID 0000.0001) %MON dynstat_eta_sd               =   2.0327949364754E+03
(PID.TID 0000.0001) %MON dynstat_eta_del2             =   7.4324252972270E-01
(PID.TID 0000.0001) %MON dynstat_uvel_max             =   2.8832627759706E+01
(PID.TID 0000.0001) %MON dynstat_uvel_min             =  -2.8815784297964E+01
(PID.TID 0000.0001) %MON dynstat_uvel_mean            =   8.8301211153654E-01
(PID.TID 0000.0001) %MON dynstat_uvel_sd              =   8.9155428455710E+00
(PID.TID 0000.0001) %MON dynstat_uvel_del2            =   1.7095718135036E-03
(PID.TID 0000.0001) %MON dynstat_vvel_max             =   2.8832774829463E+01
(PID.TID 0000.0001) %MON dynstat_vvel_min             =  -2.8828040276652E+01
(PID.TID 0000.0001) %MON dynstat_vvel_mean            =   8.8176496608603E-01
(PID.TID 0000.0001) %MON dynstat_vvel_sd              =   8.9176611604966E+00
(PID.TID 0000.0001) %MON dynstat_vvel_del2            =   1.7463410646541E-03
(PID.TID 0000.0001) %MON dynstat_wvel_max             =   4.8294579412616E-01
(PID.TID 0000.0001) %MON dynstat_wvel_min             =  -2.7864749296763E-01
(PID.TID 0000.0001) %MON dynstat_wvel_mean            =   2.1637014488704E-16
(PID.TID 0000.0001) %MON dynstat_wvel_sd              =   8.9175552917012E-02
(PID.TID 0000.0001) %MON dynstat_wvel_del2            =   9.7701355626257E-05
(PID.TID 0000.0001) %MON dynstat_theta_max            =   1.1566821145914E+03
(PID.TID 0000.0001) %MON dynstat_theta_min            =   2.5473077411239E+02
(PID.TID 0000.0001) %MON dynstat_theta_mean           =   3.2768773678829E+02
(PID.TID 0000.0001) %MON dynstat_theta_sd             =   9.0481738192635E+01
(PID.TID 0000.0001) %MON dynstat_theta_del2           =   7.0227344675377E-04
(PID.TID 0000.0001) %MON dynstat_salt_max             =   2.0315408437672E-02
(PID.TID 0000.0001) %MON dynstat_salt_min             =   0.0000000000000E+00
(PID.TID 0000.0001) %MON dynstat_salt_mean            =   1.7982518732675E-03
(PID.TID 0000.0001) %MON dynstat_salt_sd              =   3.7999752916858E-03
(PID.TID 0000.0001) %MON dynstat_salt_del2            =   1.5716769172069E-07
(PID.TID 0000.0001) %MON trAdv_CFL_u_max              =   8.2955380429747E-02
(PID.TID 0000.0001) %MON trAdv_CFL_v_max              =   8.2953449343671E-02
(PID.TID 0000.0001) %MON trAdv_CFL_w_max              =   1.8119127021134E-02
(PID.TID 0000.0001) %MON advcfl_uvel_max              =   8.7183265749708E-02
(PID.TID 0000.0001) %MON advcfl_vvel_max              =   8.7182374884730E-02
(PID.TID 0000.0001) %MON advcfl_wvel_max              =   1.8722169420382E-02
(PID.TID 0000.0001) %MON advcfl_W_hf_max              =   1.8783938145900E-02
(PID.TID 0000.0001) %MON am_eta_mean                  =  -1.6976891742754E+11
(PID.TID 0000.0001) %MON am_uZo_mean                  =   1.6951690703381E+11
(PID.TID 0000.0001) %MON am_tot_mean                  =  -2.5201039372812E+08
(PID.TID 0000.0001) %MON pe_b_mean                    =   1.7501238196320E+01
(PID.TID 0000.0001) %MON ke_max                       =   4.1767984418465E+02
(PID.TID 0000.0001) %MON ke_mean                      =   8.0284402320218E+01
(PID.TID 0000.0001) %MON ke_vol                       =   5.0986421042785E+19
(PID.TID 0000.0001) %MON vort_r_min                   =  -9.4655270435827E-06
(PID.TID 0000.0001) %MON vort_r_max                   =   1.0700373553525E-05
(PID.TID 0000.0001) %MON vort_a_mean                  =   1.6669215181739E-19
(PID.TID 0000.0001) %MON vort_a_sd                    =   8.4963636887002E-05
(PID.TID 0000.0001) %MON vort_p_mean                  =   1.6669196797850E-19
(PID.TID 0000.0001) %MON vort_p_sd                    =   8.4238948818064E-05
(PID.TID 0000.0001) %MON surfExpan_theta_mean         =  -4.7483315320351E+00
(PID.TID 0000.0001) %MON surfExpan_salt_mean          =  -4.7215770638886E-04
(PID.TID 0000.0001) %MON surfExpan_Heat_mean          =  -4.2206612061847E+02
(PID.TID 0000.0001) %MON En_Budget_T2PE_mean          =   5.9258199589177E+01
(PID.TID 0000.0001) // =======================================================
(PID.TID 0000.0001) // End MONITOR dynamic field statistics
(PID.TID 0000.0001) // =======================================================
 cg2d: Sum(rhs),rhsMax =   3.72529029846191E-09  3.15167157680762E+04
(PID.TID 0000.0001)      cg2d_init_res =   6.63706298420545E+04
(PID.TID 0000.0001)      cg2d_iters(min,last) =      -1      14
(PID.TID 0000.0001)      cg2d_last_res =   1.02917173420553E-11
(PID.TID 0000.0001) // =======================================================
(PID.TID 0000.0001) // Begin MONITOR dynamic field statistics
(PID.TID 0000.0001) // =======================================================
(PID.TID 0000.0001) %MON time_tsnumber                =                    27
(PID.TID 0000.0001) %MON time_secondsf                =   9.7200000000000E+03
(PID.TID 0000.0001) %MON dynstat_eta_max              =   3.8966120104196E+03
(PID.TID 0000.0001) %MON dynstat_eta_min              =  -2.6956623747076E+03
(PID.TID 0000.0001) %MON dynstat_eta_mean             =  -1.8851973662950E-12
(PID.TID 0000.0001) %MON dynstat_eta_sd               =   2.1580875068254E+03
(PID.TID 0000.0001) %MON dynstat_eta_del2             =   7.6191552926839E-01
(PID.TID 0000.0001) %MON dynstat_uvel_max             =   2.9646198491381E+01
(PID.TID 0000.0001) %MON dynstat_uvel_min             =  -2.9627510632942E+01
(PID.TID 0000.0001) %MON dynstat_uvel_mean            =   9.3767432734728E-01
(PID.TID 0000.0001) %MON dynstat_uvel_sd              =   9.1276547963059E+00
(PID.TID 0000.0001) %MON dynstat_uvel_del2            =   1.7427829242395E-03
(PID.TID 0000.0001) %MON dynstat_vvel_max             =   2.9646229265410E+01
(PID.TID 0000.0001) %MON dynstat_vvel_min             =  -2.9641451134978E+01
(PID.TID 0000.0001) %MON dynstat_vvel_mean            =   9.3624262545202E-01
(PID.TID 0000.0001) %MON dynstat_vvel_sd              =   9.1299752027649E+00
(PID.TID 0000.0001) %MON dynstat_vvel_del2            =   1.7830876472718E-03
(PID.TID 0000.0001) %MON dynstat_wvel_max             =   4.9889560387085E-01
(PID.TID 0000.0001) %MON dynstat_wvel_min             =  -2.9970242200546E-01
(PID.TID 0000.0001) %MON dynstat_wvel_mean            =   1.5347184695476E-16
(PID.TID 0000.0001) %MON dynstat_wvel_sd              =   9.1529867091137E-02
(PID.TID 0000.0001) %MON dynstat_wvel_del2            =   1.0025098692656E-04
(PID.TID 0000.0001) %MON dynstat_theta_max            =   1.1568278573558E+03
(PID.TID 0000.0001) %MON dynstat_theta_min            =   2.5471196843031E+02
(PID.TID 0000.0001) %MON dynstat_theta_mean           =   3.2767956048724E+02
(PID.TID 0000.0001) %MON dynstat_theta_sd             =   9.0487088724541E+01
(PID.TID 0000.0001) %MON dynstat_theta_del2           =   7.1364514770609E-04
(PID.TID 0000.0001) %MON dynstat_salt_max             =   2.0315424727309E-02
(PID.TID 0000.0001) %MON dynstat_salt_min             =   0.0000000000000E+00
(PID.TID 0000.0001) %MON dynstat_salt_mean            =   1.7983038381130E-03
(PID.TID 0000.0001) %MON dynstat_salt_sd              =   3.7999699365657E-03
(PID.TID 0000.0001) %MON dynstat_salt_del2            =   1.5774058516641E-07
(PID.TID 0000.0001) %MON trAdv_CFL_u_max              =   8.5923346249780E-02
(PID.TID 0000.0001) %MON trAdv_CFL_v_max              =   8.5920923237784E-02
(PID.TID 0000.0001) %MON trAdv_CFL_w_max              =   1.8678901783034E-02
(PID.TID 0000.0001) %MON advcfl_uvel_max              =   8.9568007711125E-02
(PID.TID 0000.0001) %MON advcfl_vvel_max              =   8.9566681631926E-02
(PID.TID 0000.0001) %MON advcfl_wvel_max              =   1.9394930602690E-02
(PID.TID 0000.0001) %MON advcfl_W_hf_max              =   1.9469587782967E-02
(PID.TID 0000.0001) %MON am_eta_mean                  =  -1.8084539787002E+11
(PID.TID 0000.0001) %MON am_uZo_mean                  =   1.8056561978776E+11
(PID.TID 0000.0001) %MON am_tot_mean                  =  -2.7977808226932E+08
(PID.TID 0000.0001) %MON pe_b_mean                    =   1.9725123745368E+01
(PID.TID 0000.0001) %MON ke_max                       =   4.4053918929634E+02
(PID.TID 0000.0001) %MON ke_mean                      =   8.4213156334896E+01
(PID.TID 0000.0001) %MON ke_vol                       =   5.0986421042785E+19
(PID.TID 0000.0001) %MON vort_r_min                   =  -1.0009091263676E-05
(PID.TID 0000.0001) %MON vort_r_max                   =   1.1498561863518E-05
(PID.TID 0000.0001) %MON vort_a_mean                  =   4.9027103475703E-21
(PID.TID 0000.0001) %MON vort_a_sd                    =   8.5013481053934E-05
(PID.TID 0000.0001) %MON vort_p_mean                  =   4.9027045882263E-21
(PID.TID 0000.0001) %MON vort_p_sd                    =   8.4240589526105E-05
(PID.TID 0000.0001) %MON surfExpan_theta_mean         =  -4.7635018247272E+00
(PID.TID 0000.0001) %MON surfExpan_salt_mean          =  -4.7610697244721E-04
(PID.TID 0000.0001) %MON surfExpan_Heat_mean          =  -4.2377866389971E+02
(PID.TID 0000.0001) %MON En_Budget_T2PE_mean          =   6.0526781970535E+01
(PID.TID 0000.0001) // =======================================================
(PID.TID 0000.0001) // End MONITOR dynamic field statistics
(PID.TID 0000.0001) // =======================================================
 cg2d: Sum(rhs),rhsMax =  -2.98023223876953E-08  3.33032152351734E+04
(PID.TID 0000.0001)      cg2d_init_res =   6.65992749090812E+04
(PID.TID 0000.0001)      cg2d_iters(min,last) =      -1      14
(PID.TID 0000.0001)      cg2d_last_res =   1.09364227366654E-11
(PID.TID 0000.0001) // =======================================================
(PID.TID 0000.0001) // Begin MONITOR dynamic field statistics
(PID.TID 0000.0001) // =======================================================
(PID.TID 0000.0001) %MON time_tsnumber                =                    28
(PID.TID 0000.0001) %MON time_secondsf                =   1.0080000000000E+04
(PID.TID 0000.0001) %MON dynstat_eta_max              =   4.1178398078224E+03
(PID.TID 0000.0001) %MON dynstat_eta_min              =  -2.8518811318832E+03
(PID.TID 0000.0001) %MON dynstat_eta_mean             =   3.4276315750819E-13
(PID.TID 0000.0001) %MON dynstat_eta_sd               =   2.2838107614272E+03
(PID.TID 0000.0001) %MON dynstat_eta_del2             =   7.7987575157906E-01
(PID.TID 0000.0001) %MON dynstat_uvel_max             =   3.0421313166697E+01
(PID.TID 0000.0001) %MON dynstat_uvel_min             =  -3.0400516684649E+01
(PID.TID 0000.0001) %MON dynstat_uvel_mean            =   9.9246726883627E-01
(PID.TID 0000.0001) %MON dynstat_uvel_sd              =   9.3288618825434E+00
(PID.TID 0000.0001) %MON dynstat_uvel_del2            =   1.7737773598346E-03
(PID.TID 0000.0001) %MON dynstat_vvel_max             =   3.0421212417949E+01
(PID.TID 0000.0001) %MON dynstat_vvel_min             =  -3.0416414048127E+01
(PID.TID 0000.0001) %MON dynstat_vvel_mean            =   9.9082432945979E-01
(PID.TID 0000.0001) %MON dynstat_vvel_sd              =   9.3313957032650E+00
(PID.TID 0000.0001) %MON dynstat_vvel_del2            =   1.8177400708943E-03
(PID.TID 0000.0001) %MON dynstat_wvel_max             =   5.1487850503382E-01
(PID.TID 0000.0001) %MON dynstat_wvel_min             =  -3.2102550310938E-01
(PID.TID 0000.0001) %MON dynstat_wvel_mean            =  -2.5159319172912E-18
(PID.TID 0000.0001) %MON dynstat_wvel_sd              =   9.3784686926950E-02
(PID.TID 0000.0001) %MON dynstat_wvel_del2            =   1.0269446909336E-04
(PID.TID 0000.0001) %MON dynstat_theta_max            =   1.1569489534677E+03
(PID.TID 0000.0001) %MON dynstat_theta_min            =   2.5469254872660E+02
(PID.TID 0000.0001) %MON dynstat_theta_mean           =   3.2767130264652E+02
(PID.TID 0000.0001) %MON dynstat_theta_sd             =   9.0492496472194E+01
(PID.TID 0000.0001) %MON dynstat_theta_del2           =   7.2583197973544E-04
(PID.TID 0000.0001) %MON dynstat_salt_max             =   2.0315441437142E-02
(PID.TID 0000.0001) %MON dynstat_salt_min             =   0.0000000000000E+00
(PID.TID 0000.0001) %MON dynstat_salt_mean            =   1.7983518264317E-03
(PID.TID 0000.0001) %MON dynstat_salt_sd              =   3.7999571178273E-03
(PID.TID 0000.0001) %MON dynstat_salt_del2            =   1.5836689877453E-07
(PID.TID 0000.0001) %MON trAdv_CFL_u_max              =   8.8820995453557E-02
(PID.TID 0000.0001) %MON trAdv_CFL_v_max              =   8.8818021383528E-02
(PID.TID 0000.0001) %MON trAdv_CFL_w_max              =   1.9203421273616E-02
(PID.TID 0000.0001) %MON advcfl_uvel_max              =   9.1827875384675E-02
(PID.TID 0000.0001) %MON advcfl_vvel_max              =   9.1826067644192E-02
(PID.TID 0000.0001) %MON advcfl_wvel_max              =   2.0038514790505E-02
(PID.TID 0000.0001) %MON advcfl_W_hf_max              =   2.0128436889125E-02
(PID.TID 0000.0001) %MON am_eta_mean                  =  -1.9199111153948E+11
(PID.TID 0000.0001) %MON am_uZo_mean                  =   1.9168195175793E+11
(PID.TID 0000.0001) %MON am_tot_mean                  =  -3.0915978155881E+08
(PID.TID 0000.0001) %MON pe_b_mean                    =   2.2090312786483E+01
(PID.TID 0000.0001) %MON ke_max                       =   4.6308508331738E+02
(PID.TID 0000.0001) %MON ke_mean                      =   8.8034666955316E+01
(PID.TID 0000.0001) %MON ke_vol                       =   5.0986421042785E+19
(PID.TID 0000.0001) %MON vort_r_min                   =  -1.0550756811007E-05
(PID.TID 0000.0001) %MON vort_r_max                   =   1.2312703145357E-05
(PID.TID 0000.0001) %MON vort_a_mean                  =  -4.9027103475703E-20
(PID.TID 0000.0001) %MON vort_a_sd                    =   8.5063781362676E-05
(PID.TID 0000.0001) %MON vort_p_mean                  =  -4.9027042301834E-20
(PID.TID 0000.0001) %MON vort_p_sd                    =   8.4242277095320E-05
(PID.TID 0000.0001) %MON surfExpan_theta_mean         =  -4.7641970097975E+00
(PID.TID 0000.0001) %MON surfExpan_salt_mean          =  -4.7872587431163E-04
(PID.TID 0000.0001) %MON surfExpan_Heat_mean          =  -4.2420819500576E+02
(PID.TID 0000.0001) %MON En_Budget_T2PE_mean          =   6.1703651165681E+01
(PID.TID 0000.0001) // =======================================================
(PID.TID 0000.0001) // End MONITOR dynamic field statistics
(PID.TID 0000.0001) // =======================================================
 cg2d: Sum(rhs),rhsMax =  -2.98023223876953E-08  3.50908238716838E+04
(PID.TID 0000.0001)      cg2d_init_res =   6.66318088597459E+04
(PID.TID 0000.0001)      cg2d_iters(min,last) =      -1      14
(PID.TID 0000.0001)      cg2d_last_res =   1.16116613039310E-11
(PID.TID 0000.0001) // =======================================================
(PID.TID 0000.0001) // Begin MONITOR dynamic field statistics
(PID.TID 0000.0001) // =======================================================
(PID.TID 0000.0001) %MON time_tsnumber                =                    29
(PID.TID 0000.0001) %MON time_secondsf                =   1.0440000000000E+04
(PID.TID 0000.0001) %MON dynstat_eta_max              =   4.3386151637183E+03
(PID.TID 0000.0001) %MON dynstat_eta_min              =  -3.0083537676216E+03
(PID.TID 0000.0001) %MON dynstat_eta_mean             =  -8.5690789377047E-14
(PID.TID 0000.0001) %MON dynstat_eta_sd               =   2.4095948381515E+03
(PID.TID 0000.0001) %MON dynstat_eta_del2             =   7.9711474872159E-01
(PID.TID 0000.0001) %MON dynstat_uvel_max             =   3.1156699339856E+01
(PID.TID 0000.0001) %MON dynstat_uvel_min             =  -3.1133496357449E+01
(PID.TID 0000.0001) %MON dynstat_uvel_mean            =   1.0472302076742E+00
(PID.TID 0000.0001) %MON dynstat_uvel_sd              =   9.5193525209294E+00
(PID.TID 0000.0001) %MON dynstat_uvel_del2            =   1.8027052260391E-03
(PID.TID 0000.0001) %MON dynstat_vvel_max             =   3.1156446606894E+01
(PID.TID 0000.0001) %MON dynstat_vvel_min             =  -3.1151655649302E+01
(PID.TID 0000.0001) %MON dynstat_vvel_mean            =   1.0453471887535E+00
(PID.TID 0000.0001) %MON dynstat_vvel_sd              =   9.5221087206716E+00
(PID.TID 0000.0001) %MON dynstat_vvel_del2            =   1.8504323877105E-03
(PID.TID 0000.0001) %MON dynstat_wvel_max             =   5.3063758177759E-01
(PID.TID 0000.0001) %MON dynstat_wvel_min             =  -3.4259242402451E-01
(PID.TID 0000.0001) %MON dynstat_wvel_mean            =  -5.0318638345824E-18
(PID.TID 0000.0001) %MON dynstat_wvel_sd              =   9.5939643487253E-02
(PID.TID 0000.0001) %MON dynstat_wvel_del2            =   1.0503701082106E-04
(PID.TID 0000.0001) %MON dynstat_theta_max            =   1.1570428084066E+03
(PID.TID 0000.0001) %MON dynstat_theta_min            =   2.5467250690108E+02
(PID.TID 0000.0001) %MON dynstat_theta_mean           =   3.2766296394942E+02
(PID.TID 0000.0001) %MON dynstat_theta_sd             =   9.0497955577867E+01
(PID.TID 0000.0001) %MON dynstat_theta_del2           =   7.3773918057210E-04
(PID.TID 0000.0001) %MON dynstat_salt_max             =   2.0315458566294E-02
(PID.TID 0000.0001) %MON dynstat_salt_min             =   0.0000000000000E+00
(PID.TID 0000.0001) %MON dynstat_salt_mean            =   1.7983956487083E-03
(PID.TID 0000.0001) %MON dynstat_salt_sd              =   3.7999375380861E-03
(PID.TID 0000.0001) %MON dynstat_salt_del2            =   1.5900912189987E-07
(PID.TID 0000.0001) %MON trAdv_CFL_u_max              =   9.1643242420636E-02
(PID.TID 0000.0001) %MON trAdv_CFL_v_max              =   9.1639636881861E-02
(PID.TID 0000.0001) %MON trAdv_CFL_w_max              =   1.9692036391025E-02
(PID.TID 0000.0001) %MON advcfl_uvel_max              =   9.3998763129498E-02
(PID.TID 0000.0001) %MON advcfl_vvel_max              =   9.3996568085634E-02
(PID.TID 0000.0001) %MON advcfl_wvel_max              =   2.0651841020533E-02
(PID.TID 0000.0001) %MON advcfl_W_hf_max              =   2.0759724128204E-02
(PID.TID 0000.0001) %MON am_eta_mean                  =  -2.0317266445629E+11
(PID.TID 0000.0001) %MON am_uZo_mean                  =   2.0283250076737E+11
(PID.TID 0000.0001) %MON am_tot_mean                  =  -3.4016368891180E+08
(PID.TID 0000.0001) %MON pe_b_mean                    =   2.4590631599668E+01
(PID.TID 0000.0001) %MON ke_max                       =   4.8524203279432E+02
(PID.TID 0000.0001) %MON ke_mean                      =   9.1739034369509E+01
(PID.TID 0000.0001) %MON ke_vol                       =   5.0986421042785E+19
(PID.TID 0000.0001) %MON vort_r_min                   =  -1.1088649948508E-05
(PID.TID 0000.0001) %MON vort_r_max                   =   1.3140534373340E-05
(PID.TID 0000.0001) %MON vort_a_mean                  =  -2.6719771394258E-19
(PID.TID 0000.0001) %MON vort_a_sd                    =   8.5114395031544E-05
(PID.TID 0000.0001) %MON vort_p_mean                  =  -2.6719736069149E-19
(PID.TID 0000.0001) %MON vort_p_sd                    =   8.4244014221251E-05
(PID.TID 0000.0001) %MON surfExpan_theta_mean         =  -4.7505240728214E+00
(PID.TID 0000.0001) %MON surfExpan_salt_mean          =  -4.8000758612911E-04
(PID.TID 0000.0001) %MON surfExpan_Heat_mean          =  -4.2336012431985E+02
(PID.TID 0000.0001) %MON En_Budget_T2PE_mean          =   6.2788447254223E+01
(PID.TID 0000.0001) // =======================================================
(PID.TID 0000.0001) // End MONITOR dynamic field statistics
(PID.TID 0000.0001) // =======================================================
 cg2d: Sum(rhs),rhsMax =  -4.47034835815430E-08  3.68709850294768E+04
(PID.TID 0000.0001)      cg2d_init_res =   6.64684868838087E+04
(PID.TID 0000.0001)      cg2d_iters(min,last) =      -1      14
(PID.TID 0000.0001)      cg2d_last_res =   1.23134880571822E-11
(PID.TID 0000.0001) // =======================================================
(PID.TID 0000.0001) // Begin MONITOR dynamic field statistics
(PID.TID 0000.0001) // =======================================================
(PID.TID 0000.0001) %MON time_tsnumber                =                    30
(PID.TID 0000.0001) %MON time_secondsf                =   1.0800000000000E+04
(PID.TID 0000.0001) %MON dynstat_eta_max              =   4.5583700189190E+03
(PID.TID 0000.0001) %MON dynstat_eta_min              =  -3.1647277090115E+03
(PID.TID 0000.0001) %MON dynstat_eta_mean             =   1.2853618406557E-12
(PID.TID 0000.0001) %MON dynstat_eta_sd               =   2.5350702027120E+03
(PID.TID 0000.0001) %MON dynstat_eta_del2             =   8.1363634689045E-01
(PID.TID 0000.0001) %MON dynstat_uvel_max             =   3.1851208251423E+01
(PID.TID 0000.0001) %MON dynstat_uvel_min             =  -3.1825269954483E+01
(PID.TID 0000.0001) %MON dynstat_uvel_mean            =   1.1018037294408E+00
(PID.TID 0000.0001) %MON dynstat_uvel_sd              =   9.6993604680763E+00
(PID.TID 0000.0001) %MON dynstat_uvel_del2            =   1.8297472753508E-03
(PID.TID 0000.0001) %MON dynstat_vvel_max             =   3.1850777459642E+01
(PID.TID 0000.0001) %MON dynstat_vvel_min             =  -3.1846026220387E+01
(PID.TID 0000.0001) %MON dynstat_vvel_mean            =   1.0996503119765E+00
(PID.TID 0000.0001) %MON dynstat_vvel_sd              =   9.7023457734950E+00
(PID.TID 0000.0001) %MON dynstat_vvel_del2            =   1.8813355937168E-03
(PID.TID 0000.0001) %MON dynstat_wvel_max             =   5.4559739237452E-01
(PID.TID 0000.0001) %MON dynstat_wvel_min             =  -3.6438074299390E-01
(PID.TID 0000.0001) %MON dynstat_wvel_mean            =  -5.0318638345824E-18
(PID.TID 0000.0001) %MON dynstat_wvel_sd              =   9.7994592434941E-02
(PID.TID 0000.0001) %MON dynstat_wvel_del2            =   1.0728494310339E-04
(PID.TID 0000.0001) %MON dynstat_theta_max            =   1.1571211352711E+03
(PID.TID 0000.0001) %MON dynstat_theta_min            =   2.5465183737584E+02
(PID.TID 0000.0001) %MON dynstat_theta_mean           =   3.2765453802200E+02
(PID.TID 0000.0001) %MON dynstat_theta_sd             =   9.0503463268243E+01
(PID.TID 0000.0001) %MON dynstat_theta_del2           =   7.4837291187719E-04
(PID.TID 0000.0001) %MON dynstat_salt_max             =   2.0315476114384E-02
(PID.TID 0000.0001) %MON dynstat_salt_min             =   0.0000000000000E+00
(PID.TID 0000.0001) %MON dynstat_salt_mean            =   1.7984365041924E-03
(PID.TID 0000.0001) %MON dynstat_salt_sd              =   3.7999132480940E-03
(PID.TID 0000.0001) %MON dynstat_salt_del2            =   1.5969834431385E-07
(PID.TID 0000.0001) %MON trAdv_CFL_u_max              =   9.4385200789004E-02
(PID.TID 0000.0001) %MON trAdv_CFL_v_max              =   9.4380863160216E-02
(PID.TID 0000.0001) %MON trAdv_CFL_w_max              =   2.0144362762999E-02
(PID.TID 0000.0001) %MON advcfl_uvel_max              =   9.6114794010259E-02
(PID.TID 0000.0001) %MON advcfl_vvel_max              =   9.6111991036454E-02
(PID.TID 0000.0001) %MON advcfl_wvel_max              =   2.1234060676198E-02
(PID.TID 0000.0001) %MON advcfl_W_hf_max              =   2.1362905823929E-02
(PID.TID 0000.0001) %MON am_eta_mean                  =  -2.1435654448576E+11
(PID.TID 0000.0001) %MON am_uZo_mean                  =   2.1398377224868E+11
(PID.TID 0000.0001) %MON am_tot_mean                  =  -3.7277223708643E+08
(PID.TID 0000.0001) %MON pe_b_mean                    =   2.7218338844965E+01
(PID.TID 0000.0001) %MON ke_max                       =   5.0694327997181E+02
(PID.TID 0000.0001) %MON ke_mean                      =   9.5318154619885E+01
(PID.TID 0000.0001) %MON ke_vol                       =   5.0986421042784E+19
(PID.TID 0000.0001) %MON vort_r_min                   =  -1.1620911716644E-05
(PID.TID 0000.0001) %MON vort_r_max                   =   1.3979716575952E-05
(PID.TID 0000.0001) %MON vort_a_mean                  =   2.4513551737851E-20
(PID.TID 0000.0001) %MON vort_a_sd                    =   8.5165177851363E-05
(PID.TID 0000.0001) %MON vort_p_mean                  =   2.4513517474020E-20
(PID.TID 0000.0001) %MON vort_p_sd                    =   8.4245804129409E-05
(PID.TID 0000.0001) %MON surfExpan_theta_mean         =  -4.7226347187440E+00
(PID.TID 0000.0001) %MON surfExpan_salt_mean          =  -4.7994852503807E-04
(PID.TID 0000.0001) %MON surfExpan_Heat_mean          =  -4.2124384535853E+02
(PID.TID 0000.0001) %MON En_Budget_T2PE_mean          =   6.3780981185611E+01
(PID.TID 0000.0001) // =======================================================
(PID.TID 0000.0001) // End MONITOR dynamic field statistics
(PID.TID 0000.0001) // =======================================================
 cg2d: Sum(rhs),rhsMax =   2.60770320892334E-08  3.86349980313148E+04
(PID.TID 0000.0001)      cg2d_init_res =   6.61102078954338E+04
(PID.TID 0000.0001)      cg2d_iters(min,last) =      -1      14
(PID.TID 0000.0001)      cg2d_last_res =   1.30364944626058E-11
(PID.TID 0000.0001) // =======================================================
(PID.TID 0000.0001) // Begin MONITOR dynamic field statistics
(PID.TID 0000.0001) // =======================================================
(PID.TID 0000.0001) %MON time_tsnumber                =                    31
(PID.TID 0000.0001) %MON time_secondsf                =   1.1160000000000E+04
(PID.TID 0000.0001) %MON dynstat_eta_max              =   4.7758975358035E+03
(PID.TID 0000.0001) %MON dynstat_eta_min              =  -3.3206541585105E+03
(PID.TID 0000.0001) %MON dynstat_eta_mean             =  -1.5424342087868E-12
(PID.TID 0000.0001) %MON dynstat_eta_sd               =   2.6598687624543E+03
(PID.TID 0000.0001) %MON dynstat_eta_del2             =   8.2945319614994E-01
(PID.TID 0000.0001) %MON dynstat_uvel_max             =   3.2503824240312E+01
(PID.TID 0000.0001) %MON dynstat_uvel_min             =  -3.2474802425391E+01
(PID.TID 0000.0001) %MON dynstat_uvel_mean            =   1.1560305688858E+00
(PID.TID 0000.0001) %MON dynstat_uvel_sd              =   9.8691614306968E+00
(PID.TID 0000.0001) %MON dynstat_uvel_del2            =   1.8550611257613E-03
(PID.TID 0000.0001) %MON dynstat_vvel_max             =   3.2503181315050E+01
(PID.TID 0000.0001) %MON dynstat_vvel_min             =  -3.2498512531181E+01
(PID.TID 0000.0001) %MON dynstat_vvel_mean            =   1.1535751673316E+00
(PID.TID 0000.0001) %MON dynstat_vvel_sd              =   9.8723795401483E+00
(PID.TID 0000.0001) %MON dynstat_vvel_del2            =   1.9106054693220E-03
(PID.TID 0000.0001) %MON dynstat_wvel_max             =   5.5974200272725E-01
(PID.TID 0000.0001) %MON dynstat_wvel_min             =  -3.8636997485382E-01
(PID.TID 0000.0001) %MON dynstat_wvel_mean            =   1.0818507244352E-16
(PID.TID 0000.0001) %MON dynstat_wvel_sd              =   9.9949825625625E-02
(PID.TID 0000.0001) %MON dynstat_wvel_del2            =   1.0944498621122E-04
(PID.TID 0000.0001) %MON dynstat_theta_max            =   1.1571798649480E+03
(PID.TID 0000.0001) %MON dynstat_theta_min            =   2.5463053704094E+02
(PID.TID 0000.0001) %MON dynstat_theta_mean           =   3.2764601692582E+02
(PID.TID 0000.0001) %MON dynstat_theta_sd             =   9.0509017448381E+01
(PID.TID 0000.0001) %MON dynstat_theta_del2           =   7.5698237332783E-04
(PID.TID 0000.0001) %MON dynstat_salt_max             =   2.0315494081226E-02
(PID.TID 0000.0001) %MON dynstat_salt_min             =   0.0000000000000E+00
(PID.TID 0000.0001) %MON dynstat_salt_mean            =   1.7984759717182E-03
(PID.TID 0000.0001) %MON dynstat_salt_sd              =   3.7998870800352E-03
(PID.TID 0000.0001) %MON dynstat_salt_del2            =   1.6036503569861E-07
(PID.TID 0000.0001) %MON trAdv_CFL_u_max              =   9.7042221877838E-02
(PID.TID 0000.0001) %MON trAdv_CFL_v_max              =   9.7037014236513E-02
(PID.TID 0000.0001) %MON trAdv_CFL_w_max              =   2.0560275637380E-02
(PID.TID 0000.0001) %MON advcfl_uvel_max              =   9.8105290544178E-02
(PID.TID 0000.0001) %MON advcfl_vvel_max              =   9.8101765459932E-02
(PID.TID 0000.0001) %MON advcfl_wvel_max              =   2.1784553619655E-02
(PID.TID 0000.0001) %MON advcfl_W_hf_max              =   2.1937645683317E-02
(PID.TID 0000.0001) %MON am_eta_mean                  =  -2.2550922321532E+11
(PID.TID 0000.0001) %MON am_uZo_mean                  =   2.2510227483854E+11
(PID.TID 0000.0001) %MON am_tot_mean                  =  -4.0694837677524E+08
(PID.TID 0000.0001) %MON pe_b_mean                    =   2.9964156277774E+01
(PID.TID 0000.0001) %MON ke_max                       =   5.2812821515417E+02
(PID.TID 0000.0001) %MON ke_mean                      =   9.8765683720716E+01
(PID.TID 0000.0001) %MON ke_vol                       =   5.0986421042785E+19
(PID.TID 0000.0001) %MON vort_r_min                   =  -1.2145708836168E-05
(PID.TID 0000.0001) %MON vort_r_max                   =   1.4827820365772E-05
(PID.TID 0000.0001) %MON vort_a_mean                  =  -1.9365705872903E-19
(PID.TID 0000.0001) %MON vort_a_sd                    =   8.5215982825056E-05
(PID.TID 0000.0001) %MON vort_p_mean                  =  -1.9610812465331E-19
(PID.TID 0000.0001) %MON vort_p_sd                    =   8.4247648808557E-05
(PID.TID 0000.0001) %MON surfExpan_theta_mean         =  -4.6807226011644E+00
(PID.TID 0000.0001) %MON surfExpan_salt_mean          =  -4.7854851720311E-04
(PID.TID 0000.0001) %MON surfExpan_Heat_mean          =  -4.1787254570141E+02
(PID.TID 0000.0001) %MON En_Budget_T2PE_mean          =   6.4681193719252E+01
(PID.TID 0000.0001) // =======================================================
(PID.TID 0000.0001) // End MONITOR dynamic field statistics
(PID.TID 0000.0001) // =======================================================
 cg2d: Sum(rhs),rhsMax =   4.47034835815430E-08  4.03749685835640E+04
(PID.TID 0000.0001)      cg2d_init_res =   6.55585108223923E+04
(PID.TID 0000.0001)      cg2d_iters(min,last) =      -1      14
(PID.TID 0000.0001)      cg2d_last_res =   1.37739637965630E-11
(PID.TID 0000.0001) // =======================================================
(PID.TID 0000.0001) // Begin MONITOR dynamic field statistics
(PID.TID 0000.0001) // =======================================================
(PID.TID 0000.0001) %MON time_tsnumber                =                    32
(PID.TID 0000.0001) %MON time_secondsf                =   1.1520000000000E+04
(PID.TID 0000.0001) %MON dynstat_eta_max              =   4.9902309148389E+03
(PID.TID 0000.0001) %MON dynstat_eta_min              =  -3.4757763618811E+03
(PID.TID 0000.0001) %MON dynstat_eta_mean             =  -1.6281249981639E-12
(PID.TID 0000.0001) %MON dynstat_eta_sd               =   2.7836249772877E+03
(PID.TID 0000.0001) %MON dynstat_eta_del2             =   8.4458847358514E-01
(PID.TID 0000.0001) %MON dynstat_uvel_max             =   3.3113683803397E+01
(PID.TID 0000.0001) %MON dynstat_uvel_min             =  -3.3081212683532E+01
(PID.TID 0000.0001) %MON dynstat_uvel_mean            =   1.2097558849437E+00
(PID.TID 0000.0001) %MON dynstat_uvel_sd              =   1.0029074704227E+01
(PID.TID 0000.0001) %MON dynstat_uvel_del2            =   1.8788474394498E-03
(PID.TID 0000.0001) %MON dynstat_vvel_max             =   3.3112782465337E+01
(PID.TID 0000.0001) %MON dynstat_vvel_min             =  -3.3108250784233E+01
(PID.TID 0000.0001) %MON dynstat_vvel_mean            =   1.2069662671795E+00
(PID.TID 0000.0001) %MON dynstat_vvel_sd              =   1.0032524337880E+01
(PID.TID 0000.0001) %MON dynstat_vvel_del2            =   1.9384134808515E-03
(PID.TID 0000.0001) %MON dynstat_wvel_max             =   5.7306082448705E-01
(PID.TID 0000.0001) %MON dynstat_wvel_min             =  -4.0854136199162E-01
(PID.TID 0000.0001) %MON dynstat_wvel_mean            =  -8.0509821353318E-17
(PID.TID 0000.0001) %MON dynstat_wvel_sd              =   1.0180596298045E-01
(PID.TID 0000.0001) %MON dynstat_wvel_del2            =   1.1152640930766E-04
(PID.TID 0000.0001) %MON dynstat_theta_max            =   1.1573218095942E+03
(PID.TID 0000.0001) %MON dynstat_theta_min            =   2.5460860514527E+02
(PID.TID 0000.0001) %MON dynstat_theta_mean           =   3.2763739163987E+02
(PID.TID 0000.0001) %MON dynstat_theta_sd             =   9.0514616773836E+01
(PID.TID 0000.0001) %MON dynstat_theta_del2           =   7.6315788522298E-04
(PID.TID 0000.0001) %MON dynstat_salt_max             =   2.0315512466574E-02
(PID.TID 0000.0001) %MON dynstat_salt_min             =   0.0000000000000E+00
(PID.TID 0000.0001) %MON dynstat_salt_mean            =   1.7985156463918E-03
(PID.TID 0000.0001) %MON dynstat_salt_sd              =   3.7998623835483E-03
(PID.TID 0000.0001) %MON dynstat_salt_del2            =   1.6109145705218E-07
(PID.TID 0000.0001) %MON trAdv_CFL_u_max              =   9.9609914452560E-02
(PID.TID 0000.0001) %MON trAdv_CFL_v_max              =   9.9603659002284E-02
(PID.TID 0000.0001) %MON trAdv_CFL_w_max              =   2.0965650354650E-02
(PID.TID 0000.0001) %MON advcfl_uvel_max              =   9.9967524881019E-02
(PID.TID 0000.0001) %MON advcfl_vvel_max              =   9.9963148989859E-02
(PID.TID 0000.0001) %MON advcfl_wvel_max              =   2.2302907763820E-02
(PID.TID 0000.0001) %MON advcfl_W_hf_max              =   2.2483793664480E-02
(PID.TID 0000.0001) %MON am_eta_mean                  =  -2.3659725747352E+11
(PID.TID 0000.0001) %MON am_uZo_mean                  =   2.3615462432956E+11
(PID.TID 0000.0001) %MON am_tot_mean                  =  -4.4263314395520E+08
(PID.TID 0000.0001) %MON pe_b_mean                    =   3.2817317945970E+01
(PID.TID 0000.0001) %MON ke_max                       =   5.4874312438098E+02
(PID.TID 0000.0001) %MON ke_mean                      =   1.0207708042308E+02
(PID.TID 0000.0001) %MON ke_vol                       =   5.0986421042785E+19
(PID.TID 0000.0001) %MON vort_r_min                   =  -1.2661240006654E-05
(PID.TID 0000.0001) %MON vort_r_max                   =   1.5682314409995E-05
(PID.TID 0000.0001) %MON vort_a_mean                  =   6.6186589692199E-20
(PID.TID 0000.0001) %MON vort_a_sd                    =   8.5266662767752E-05
(PID.TID 0000.0001) %MON vort_p_mean                  =   6.3735135489669E-20
(PID.TID 0000.0001) %MON vort_p_sd                    =   8.4249551086880E-05
(PID.TID 0000.0001) %MON surfExpan_theta_mean         =  -4.6250223652717E+00
(PID.TID 0000.0001) %MON surfExpan_salt_mean          =  -4.7581086147874E-04
(PID.TID 0000.0001) %MON surfExpan_Heat_mean          =  -4.1326315525048E+02
(PID.TID 0000.0001) %MON En_Budget_T2PE_mean          =   6.5489189176267E+01
(PID.TID 0000.0001) // =======================================================
(PID.TID 0000.0001) // End MONITOR dynamic field statistics
(PID.TID 0000.0001) // =======================================================
(PID.TID 0000.0001)   Exporting atmospheric surf fluxes at iter=        32
(PID.TID 0000.0001)   Importing  oceanic surface fields at iter=        32
 cg2d: Sum(rhs),rhsMax =  -3.72529029846191E-08  4.20852962894586E+04
(PID.TID 0000.0001)      cg2d_init_res =   6.48155803075688E+04
(PID.TID 0000.0001)      cg2d_iters(min,last) =      -1      14
(PID.TID 0000.0001)      cg2d_last_res =   1.45184790093680E-11
(PID.TID 0000.0001) // =======================================================
(PID.TID 0000.0001) // Begin MONITOR dynamic field statistics
(PID.TID 0000.0001) // =======================================================
(PID.TID 0000.0001) %MON time_tsnumber                =                    33
(PID.TID 0000.0001) %MON time_secondsf                =   1.1880000000000E+04
(PID.TID 0000.0001) %MON dynstat_eta_max              =   5.2005505643595E+03
(PID.TID 0000.0001) %MON dynstat_eta_min              =  -3.6297333424758E+03
(PID.TID 0000.0001) %MON dynstat_eta_mean             =  -1.7138157875409E-13
(PID.TID 0000.0001) %MON dynstat_eta_sd               =   2.9059769752506E+03
(PID.TID 0000.0001) %MON dynstat_eta_del2             =   8.5907482428218E-01
(PID.TID 0000.0001) %MON dynstat_uvel_max             =   3.3680073894836E+01
(PID.TID 0000.0001) %MON dynstat_uvel_min             =  -3.3643779891115E+01
(PID.TID 0000.0001) %MON dynstat_uvel_mean            =   1.2628277423284E+00
(PID.TID 0000.0001) %MON dynstat_uvel_sd              =   1.0179456481549E+01
(PID.TID 0000.0001) %MON dynstat_uvel_del2            =   1.9012598649933E-03
(PID.TID 0000.0001) %MON dynstat_vvel_max             =   3.3678853940014E+01
(PID.TID 0000.0001) %MON dynstat_vvel_min             =  -3.3674527091386E+01
(PID.TID 0000.0001) %MON dynstat_vvel_mean            =   1.2596714335721E+00
(PID.TID 0000.0001) %MON dynstat_vvel_sd              =   1.0183131103204E+01
(PID.TID 0000.0001) %MON dynstat_vvel_del2            =   1.9649003881707E-03
(PID.TID 0000.0001) %MON dynstat_wvel_max             =   5.8554807257961E-01
(PID.TID 0000.0001) %MON dynstat_wvel_min             =  -4.3087742460171E-01
(PID.TID 0000.0001) %MON dynstat_wvel_mean            =  -6.7930161766862E-17
(PID.TID 0000.0001) %MON dynstat_wvel_sd              =   1.0356404971700E-01
(PID.TID 0000.0001) %MON dynstat_wvel_del2            =   1.1353716658550E-04
(PID.TID 0000.0001) %MON dynstat_theta_max            =   1.1575062021675E+03
(PID.TID 0000.0001) %MON dynstat_theta_min            =   2.5458604233487E+02
(PID.TID 0000.0001) %MON dynstat_theta_mean           =   3.2762865527005E+02
(PID.TID 0000.0001) %MON dynstat_theta_sd             =   9.0520259407004E+01
(PID.TID 0000.0001) %MON dynstat_theta_del2           =   7.6684839154460E-04
(PID.TID 0000.0001) %MON dynstat_salt_max             =   2.0315532215481E-02
(PID.TID 0000.0001) %MON dynstat_salt_min             =   0.0000000000000E+00
(PID.TID 0000.0001) %MON dynstat_salt_mean            =   1.7985574348571E-03
(PID.TID 0000.0001) %MON dynstat_salt_sd              =   3.7998436715665E-03
(PID.TID 0000.0001) %MON dynstat_salt_del2            =   1.6187122667931E-07
(PID.TID 0000.0001) %MON trAdv_CFL_u_max              =   1.0208416067169E-01
(PID.TID 0000.0001) %MON trAdv_CFL_v_max              =   1.0207663575624E-01
(PID.TID 0000.0001) %MON trAdv_CFL_w_max              =   2.1379849546245E-02
(PID.TID 0000.0001) %MON advcfl_uvel_max              =   1.0169927304339E-01
(PID.TID 0000.0001) %MON advcfl_vvel_max              =   1.0169386735430E-01
(PID.TID 0000.0001) %MON advcfl_wvel_max              =   2.2788897959855E-02
(PID.TID 0000.0001) %MON advcfl_W_hf_max              =   2.3001367236543E-02
(PID.TID 0000.0001) %MON am_eta_mean                  =  -2.4758739102236E+11
(PID.TID 0000.0001) %MON am_uZo_mean                  =   2.4710765376916E+11
(PID.TID 0000.0001) %MON am_tot_mean                  =  -4.7973725320633E+08
(PID.TID 0000.0001) %MON pe_b_mean                    =   3.5765637717248E+01
(PID.TID 0000.0001) %MON ke_max                       =   5.6874132799028E+02
(PID.TID 0000.0001) %MON ke_mean                      =   1.0524949965322E+02
(PID.TID 0000.0001) %MON ke_vol                       =   5.0986421042784E+19
(PID.TID 0000.0001) %MON vort_r_min                   =  -1.3165732640663E-05
(PID.TID 0000.0001) %MON vort_r_max                   =   1.6540561171234E-05
(PID.TID 0000.0001) %MON vort_a_mean                  =  -1.2011640351547E-19
(PID.TID 0000.0001) %MON vort_a_sd                    =   8.5317068842660E-05
(PID.TID 0000.0001) %MON vort_p_mean                  =  -1.1276215371174E-19
(PID.TID 0000.0001) %MON vort_p_sd                    =   8.4251512728061E-05
(PID.TID 0000.0001) %MON surfExpan_theta_mean         =  -4.5558082952902E+00
(PID.TID 0000.0001) %MON surfExpan_salt_mean          =  -4.7174237151340E-04
(PID.TID 0000.0001) %MON surfExpan_Heat_mean          =  -4.0743628662348E+02
(PID.TID 0000.0001) %MON En_Budget_T2PE_mean          =   6.6205164498142E+01
(PID.TID 0000.0001) // =======================================================
(PID.TID 0000.0001) // End MONITOR dynamic field statistics
(PID.TID 0000.0001) // =======================================================
 cg2d: Sum(rhs),rhsMax =  -1.08033418655396E-07  4.37564694899017E+04
(PID.TID 0000.0001)      cg2d_init_res =   6.38842486746407E+04
(PID.TID 0000.0001)      cg2d_iters(min,last) =      -1      14
(PID.TID 0000.0001)      cg2d_last_res =   1.52616241305757E-11
(PID.TID 0000.0001) // =======================================================
(PID.TID 0000.0001) // Begin MONITOR dynamic field statistics
(PID.TID 0000.0001) // =======================================================
(PID.TID 0000.0001) %MON time_tsnumber                =                    34
(PID.TID 0000.0001) %MON time_secondsf                =   1.2240000000000E+04
(PID.TID 0000.0001) %MON dynstat_eta_max              =   5.4060855982800E+03
(PID.TID 0000.0001) %MON dynstat_eta_min              =  -3.7821562962189E+03
(PID.TID 0000.0001) %MON dynstat_eta_mean             =  -4.2845394688523E-13
(PID.TID 0000.0001) %MON dynstat_eta_sd               =   3.0265676554440E+03
(PID.TID 0000.0001) %MON dynstat_eta_del2             =   8.7295015053078E-01
(PID.TID 0000.0001) %MON dynstat_uvel_max             =   3.4202426568607E+01
(PID.TID 0000.0001) %MON dynstat_uvel_min             =  -3.4161940670195E+01
(PID.TID 0000.0001) %MON dynstat_uvel_mean            =   1.3150973125493E+00
(PID.TID 0000.0001) %MON dynstat_uvel_sd              =   1.0320698260547E+01
(PID.TID 0000.0001) %MON dynstat_uvel_del2            =   1.9224432597353E-03
(PID.TID 0000.0001) %MON dynstat_vvel_max             =   3.4200812295786E+01
(PID.TID 0000.0001) %MON dynstat_vvel_min             =  -3.4196772967218E+01
(PID.TID 0000.0001) %MON dynstat_vvel_mean            =   1.3115422383454E+00
(PID.TID 0000.0001) %MON dynstat_vvel_sd              =   1.0324585969169E+01
(PID.TID 0000.0001) %MON dynstat_vvel_del2            =   1.9901957030201E-03
(PID.TID 0000.0001) %MON dynstat_wvel_max             =   5.9720228080520E-01
(PID.TID 0000.0001) %MON dynstat_wvel_min             =  -4.5336144216005E-01
(PID.TID 0000.0001) %MON dynstat_wvel_mean            =  -1.3837625545102E-16
(PID.TID 0000.0001) %MON dynstat_wvel_sd              =   1.0522545929260E-01
(PID.TID 0000.0001) %MON dynstat_wvel_del2            =   1.1548466517979E-04
(PID.TID 0000.0001) %MON dynstat_theta_max            =   1.1576752682127E+03
(PID.TID 0000.0001) %MON dynstat_theta_min            =   2.5456219379331E+02
(PID.TID 0000.0001) %MON dynstat_theta_mean           =   3.2761979619391E+02
(PID.TID 0000.0001) %MON dynstat_theta_sd             =   9.0525944973392E+01
(PID.TID 0000.0001) %MON dynstat_theta_del2           =   7.6832088433980E-04
(PID.TID 0000.0001) %MON dynstat_salt_max             =   2.0315552394132E-02
(PID.TID 0000.0001) %MON dynstat_salt_min             =   0.0000000000000E+00
(PID.TID 0000.0001) %MON dynstat_salt_mean            =   1.7986034040934E-03
(PID.TID 0000.0001) %MON dynstat_salt_sd              =   3.7998353403198E-03
(PID.TID 0000.0001) %MON dynstat_salt_del2            =   1.6268069424378E-07
(PID.TID 0000.0001) %MON trAdv_CFL_u_max              =   1.0446112434578E-01
(PID.TID 0000.0001) %MON trAdv_CFL_v_max              =   1.0445205237113E-01
(PID.TID 0000.0001) %MON trAdv_CFL_w_max              =   2.1762690784930E-02
(PID.TID 0000.0001) %MON advcfl_uvel_max              =   1.0329882234712E-01
(PID.TID 0000.0001) %MON advcfl_vvel_max              =   1.0329215763486E-01
(PID.TID 0000.0001) %MON advcfl_wvel_max              =   2.3242467144851E-02
(PID.TID 0000.0001) %MON advcfl_W_hf_max              =   2.3490533758498E-02
(PID.TID 0000.0001) %MON am_eta_mean                  =  -2.5844665745477E+11
(PID.TID 0000.0001) %MON am_uZo_mean                  =   2.5792851906077E+11
(PID.TID 0000.0001) %MON am_tot_mean                  =  -5.1813839399442E+08
(PID.TID 0000.0001) %MON pe_b_mean                    =   3.8795594221331E+01
(PID.TID 0000.0001) %MON ke_max                       =   5.8808302775601E+02
(PID.TID 0000.0001) %MON ke_mean                      =   1.0828175597543E+02
(PID.TID 0000.0001) %MON ke_vol                       =   5.0986421042785E+19
(PID.TID 0000.0001) %MON vort_r_min                   =  -1.3657450321591E-05
(PID.TID 0000.0001) %MON vort_r_max                   =   1.7399817434131E-05
(PID.TID 0000.0001) %MON vort_a_mean                  =   4.6575748301918E-20
(PID.TID 0000.0001) %MON vort_a_sd                    =   8.5367051551993E-05
(PID.TID 0000.0001) %MON vort_p_mean                  =   4.6575668353320E-20
(PID.TID 0000.0001) %MON vort_p_sd                    =   8.4253534895903E-05
(PID.TID 0000.0001) %MON surfExpan_theta_mean         =  -4.4733920039243E+00
(PID.TID 0000.0001) %MON surfExpan_salt_mean          =  -4.6635312496959E-04
(PID.TID 0000.0001) %MON surfExpan_Heat_mean          =  -4.0041604934162E+02
(PID.TID 0000.0001) %MON En_Budget_T2PE_mean          =   6.6829427556714E+01
(PID.TID 0000.0001) // =======================================================
(PID.TID 0000.0001) // End MONITOR dynamic field statistics
(PID.TID 0000.0001) // =======================================================
 cg2d: Sum(rhs),rhsMax =   0.00000000000000E+00  4.53819656080288E+04
(PID.TID 0000.0001)      cg2d_init_res =   6.27680021047931E+04
(PID.TID 0000.0001)      cg2d_iters(min,last) =      -1      14
(PID.TID 0000.0001)      cg2d_last_res =   1.59939942911068E-11
(PID.TID 0000.0001) // =======================================================
(PID.TID 0000.0001) // Begin MONITOR dynamic field statistics
(PID.TID 0000.0001) // =======================================================
(PID.TID 0000.0001) %MON time_tsnumber                =                    35
(PID.TID 0000.0001) %MON time_secondsf                =   1.2600000000000E+04
(PID.TID 0000.0001) %MON dynstat_eta_max              =   5.6076687194253E+03
(PID.TID 0000.0001) %MON dynstat_eta_min              =  -3.9326689590064E+03
(PID.TID 0000.0001) %MON dynstat_eta_mean             =  -6.8552631501637E-13
(PID.TID 0000.0001) %MON dynstat_eta_sd               =   3.1450457849141E+03
(PID.TID 0000.0001) %MON dynstat_eta_del2             =   8.8625523356863E-01
(PID.TID 0000.0001) %MON dynstat_uvel_max             =   3.4680309023100E+01
(PID.TID 0000.0001) %MON dynstat_uvel_min             =  -3.4635281207448E+01
(PID.TID 0000.0001) %MON dynstat_uvel_mean            =   1.3664195254890E+00
(PID.TID 0000.0001) %MON dynstat_uvel_sd              =   1.0453226196870E+01
(PID.TID 0000.0001) %MON dynstat_uvel_del2            =   1.9425260835466E-03
(PID.TID 0000.0001) %MON dynstat_vvel_max             =   3.4678208156061E+01
(PID.TID 0000.0001) %MON dynstat_vvel_min             =  -3.4674555714840E+01
(PID.TID 0000.0001) %MON dynstat_vvel_mean            =   1.3624344728325E+00
(PID.TID 0000.0001) %MON dynstat_vvel_sd              =   1.0457308787926E+01
(PID.TID 0000.0001) %MON dynstat_vvel_del2            =   2.0144166517190E-03
(PID.TID 0000.0001) %MON dynstat_wvel_max             =   6.0802572277680E-01
(PID.TID 0000.0001) %MON dynstat_wvel_min             =  -4.7597677334618E-01
(PID.TID 0000.0001) %MON dynstat_wvel_mean            =  -1.1070100436081E-16
(PID.TID 0000.0001) %MON dynstat_wvel_sd              =   1.0679207402967E-01
(PID.TID 0000.0001) %MON dynstat_wvel_del2            =   1.1737759050710E-04
(PID.TID 0000.0001) %MON dynstat_theta_max            =   1.1578271441348E+03
(PID.TID 0000.0001) %MON dynstat_theta_min            =   2.5453743481036E+02
(PID.TID 0000.0001) %MON dynstat_theta_mean           =   3.2761080322134E+02
(PID.TID 0000.0001) %MON dynstat_theta_sd             =   9.0531673787133E+01
(PID.TID 0000.0001) %MON dynstat_theta_del2           =   7.6811291556050E-04
(PID.TID 0000.0001) %MON dynstat_salt_max             =   2.0315573002427E-02
(PID.TID 0000.0001) %MON dynstat_salt_min             =   0.0000000000000E+00
(PID.TID 0000.0001) %MON dynstat_salt_mean            =   1.7986560160792E-03
(PID.TID 0000.0001) %MON dynstat_salt_sd              =   3.7998428115946E-03
(PID.TID 0000.0001) %MON dynstat_salt_del2            =   1.6350719426105E-07
(PID.TID 0000.0001) %MON trAdv_CFL_u_max              =   1.0673724836683E-01
(PID.TID 0000.0001) %MON trAdv_CFL_v_max              =   1.0672629204274E-01
(PID.TID 0000.0001) %MON trAdv_CFL_w_max              =   2.2114618943705E-02
(PID.TID 0000.0001) %MON advcfl_uvel_max              =   1.0476493678899E-01
(PID.TID 0000.0001) %MON advcfl_vvel_max              =   1.0475673262828E-01
(PID.TID 0000.0001) %MON advcfl_wvel_max              =   2.3663703805368E-02
(PID.TID 0000.0001) %MON advcfl_W_hf_max              =   2.3951590855570E-02
(PID.TID 0000.0001) %MON am_eta_mean                  =  -2.6914248285324E+11
(PID.TID 0000.0001) %MON am_uZo_mean                  =   2.6858481442296E+11
(PID.TID 0000.0001) %MON am_tot_mean                  =  -5.5766843028171E+08
(PID.TID 0000.0001) %MON pe_b_mean                    =   4.1892432598621E+01
(PID.TID 0000.0001) %MON ke_max                       =   6.0673506953927E+02
(PID.TID 0000.0001) %MON ke_mean                      =   1.1117428747989E+02
(PID.TID 0000.0001) %MON ke_vol                       =   5.0986421042785E+19
(PID.TID 0000.0001) %MON vort_r_min                   =  -1.4134694063115E-05
(PID.TID 0000.0001) %MON vort_r_max                   =   1.8257240340384E-05
(PID.TID 0000.0001) %MON vort_a_mean                  =  -1.2992182421061E-19
(PID.TID 0000.0001) %MON vort_a_sd                    =   8.5416461659099E-05
(PID.TID 0000.0001) %MON vort_p_mean                  =  -1.2747023950986E-19
(PID.TID 0000.0001) %MON vort_p_sd                    =   8.4255618529399E-05
(PID.TID 0000.0001) %MON surfExpan_theta_mean         =  -4.3781227631770E+00
(PID.TID 0000.0001) %MON surfExpan_salt_mean          =  -4.5965661554954E-04
(PID.TID 0000.0001) %MON surfExpan_Heat_mean          =  -3.9223012892677E+02
(PID.TID 0000.0001) %MON En_Budget_T2PE_mean          =   6.7362411200515E+01
(PID.TID 0000.0001) // =======================================================
(PID.TID 0000.0001) // End MONITOR dynamic field statistics
(PID.TID 0000.0001) // =======================================================
 cg2d: Sum(rhs),rhsMax =  -3.72529029846191E-08  4.69561427307454E+04
(PID.TID 0000.0001)      cg2d_init_res =   6.14709883313665E+04
(PID.TID 0000.0001)      cg2d_iters(min,last) =      -1      14
(PID.TID 0000.0001)      cg2d_last_res =   1.67052057464377E-11
(PID.TID 0000.0001) // =======================================================
(PID.TID 0000.0001) // Begin MONITOR dynamic field statistics
(PID.TID 0000.0001) // =======================================================
(PID.TID 0000.0001) %MON time_tsnumber                =                    36
(PID.TID 0000.0001) %MON time_secondsf                =   1.2960000000000E+04
(PID.TID 0000.0001) %MON dynstat_eta_max              =   5.8033507135347E+03
(PID.TID 0000.0001) %MON dynstat_eta_min              =  -4.0808896524423E+03
(PID.TID 0000.0001) %MON dynstat_eta_mean             =  -1.1996710512787E-12
(PID.TID 0000.0001) %MON dynstat_eta_sd               =   3.2610670767438E+03
(PID.TID 0000.0001) %MON dynstat_eta_del2             =   8.9902976470889E-01
(PID.TID 0000.0001) %MON dynstat_uvel_max             =   3.5113409908912E+01
(PID.TID 0000.0001) %MON dynstat_uvel_min             =  -3.5063524419899E+01
(PID.TID 0000.0001) %MON dynstat_uvel_mean            =   1.4166532800437E+00
(PID.TID 0000.0001) %MON dynstat_uvel_sd              =   1.0577497791288E+01
(PID.TID 0000.0001) %MON dynstat_uvel_del2            =   1.9616211768369E-03
(PID.TID 0000.0001) %MON dynstat_vvel_max             =   3.5110712644668E+01
(PID.TID 0000.0001) %MON dynstat_vvel_min             =  -3.5107565139195E+01
(PID.TID 0000.0001) %MON dynstat_vvel_mean            =   1.4122085835790E+00
(PID.TID 0000.0001) %MON dynstat_vvel_sd              =   1.0581751356450E+01
(PID.TID 0000.0001) %MON dynstat_vvel_del2            =   2.0376669827369E-03
(PID.TID 0000.0001) %MON dynstat_wvel_max             =   6.1802403536504E-01
(PID.TID 0000.0001) %MON dynstat_wvel_min             =  -4.9870618483058E-01
(PID.TID 0000.0001) %MON dynstat_wvel_mean            =   2.5159319172912E-18
(PID.TID 0000.0001) %MON dynstat_wvel_sd              =   1.0826595188646E-01
(PID.TID 0000.0001) %MON dynstat_wvel_del2            =   1.1922164377297E-04
(PID.TID 0000.0001) %MON dynstat_theta_max            =   1.1579604070554E+03
(PID.TID 0000.0001) %MON dynstat_theta_min            =   2.5451194763911E+02
(PID.TID 0000.0001) %MON dynstat_theta_mean           =   3.2760166398456E+02
(PID.TID 0000.0001) %MON dynstat_theta_sd             =   9.0537447326378E+01
(PID.TID 0000.0001) %MON dynstat_theta_del2           =   7.6691820878342E-04
(PID.TID 0000.0001) %MON dynstat_salt_max             =   2.0315594039922E-02
(PID.TID 0000.0001) %MON dynstat_salt_min             =   0.0000000000000E+00
(PID.TID 0000.0001) %MON dynstat_salt_mean            =   1.7987180454279E-03
(PID.TID 0000.0001) %MON dynstat_salt_sd              =   3.7998719039249E-03
(PID.TID 0000.0001) %MON dynstat_salt_del2            =   1.6434689617473E-07
(PID.TID 0000.0001) %MON trAdv_CFL_u_max              =   1.0890924157889E-01
(PID.TID 0000.0001) %MON trAdv_CFL_v_max              =   1.0889600310984E-01
(PID.TID 0000.0001) %MON trAdv_CFL_w_max              =   2.2436207862884E-02
(PID.TID 0000.0001) %MON advcfl_uvel_max              =   1.0609681547767E-01
(PID.TID 0000.0001) %MON advcfl_vvel_max              =   1.0608673707171E-01
(PID.TID 0000.0001) %MON advcfl_wvel_max              =   2.4052827322315E-02
(PID.TID 0000.0001) %MON advcfl_W_hf_max              =   2.4384952725774E-02
(PID.TID 0000.0001) %MON am_eta_mean                  =  -2.7964278845806E+11
(PID.TID 0000.0001) %MON am_uZo_mean                  =   2.7904468002106E+11
(PID.TID 0000.0001) %MON am_tot_mean                  =  -5.9810843700098E+08
(PID.TID 0000.0001) %MON pe_b_mean                    =   4.5040281789154E+01
(PID.TID 0000.0001) %MON ke_max                       =   6.2467057454455E+02
(PID.TID 0000.0001) %MON ke_mean                      =   1.1392908041223E+02
(PID.TID 0000.0001) %MON ke_vol                       =   5.0986421042784E+19
(PID.TID 0000.0001) %MON vort_r_min                   =  -1.4595804588965E-05
(PID.TID 0000.0001) %MON vort_r_max                   =   1.9109910433899E-05
(PID.TID 0000.0001) %MON vort_a_mean                  =   1.7649757251253E-19
(PID.TID 0000.0001) %MON vort_a_sd                    =   8.5465151005599E-05
(PID.TID 0000.0001) %MON vort_p_mean                  =   1.7649723953374E-19
(PID.TID 0000.0001) %MON vort_p_sd                    =   8.4257764596623E-05
(PID.TID 0000.0001) %MON surfExpan_theta_mean         =  -4.2703857189513E+00
(PID.TID 0000.0001) %MON surfExpan_salt_mean          =  -4.5166960813820E-04
(PID.TID 0000.0001) %MON surfExpan_Heat_mean          =  -3.8290965738757E+02
(PID.TID 0000.0001) %MON En_Budget_T2PE_mean          =   6.7804666948205E+01
(PID.TID 0000.0001) // =======================================================
(PID.TID 0000.0001) // End MONITOR dynamic field statistics
(PID.TID 0000.0001) // =======================================================
 cg2d: Sum(rhs),rhsMax =   5.58793544769287E-08  4.84741156058152E+04
(PID.TID 0000.0001)      cg2d_init_res =   5.99980317532965E+04
(PID.TID 0000.0001)      cg2d_iters(min,last) =      -1      14
(PID.TID 0000.0001)      cg2d_last_res =   1.73840665607920E-11
(PID.TID 0000.0001) // =======================================================
(PID.TID 0000.0001) // Begin MONITOR dynamic field statistics
(PID.TID 0000.0001) // =======================================================
(PID.TID 0000.0001) %MON time_tsnumber                =                    37
(PID.TID 0000.0001) %MON time_secondsf                =   1.3320000000000E+04
(PID.TID 0000.0001) %MON dynstat_eta_max              =   5.9921108785954E+03
(PID.TID 0000.0001) %MON dynstat_eta_min              =  -4.2264419521093E+03
(PID.TID 0000.0001) %MON dynstat_eta_mean             =   9.4259868314751E-13
(PID.TID 0000.0001) %MON dynstat_eta_sd               =   3.3742952528539E+03
(PID.TID 0000.0001) %MON dynstat_eta_del2             =   9.1131067701073E-01
(PID.TID 0000.0001) %MON dynstat_uvel_max             =   3.5501524881608E+01
(PID.TID 0000.0001) %MON dynstat_uvel_min             =  -3.5455753060468E+01
(PID.TID 0000.0001) %MON dynstat_uvel_mean            =   1.4656619635458E+00
(PID.TID 0000.0001) %MON dynstat_uvel_sd              =   1.0693992731301E+01
(PID.TID 0000.0001) %MON dynstat_uvel_del2            =   1.9798458485094E-03
(PID.TID 0000.0001) %MON dynstat_vvel_max             =   3.5498103248937E+01
(PID.TID 0000.0001) %MON dynstat_vvel_min             =  -3.5495599603527E+01
(PID.TID 0000.0001) %MON dynstat_vvel_mean            =   1.4607299988736E+00
(PID.TID 0000.0001) %MON dynstat_vvel_sd              =   1.0698388855760E+01
(PID.TID 0000.0001) %MON dynstat_vvel_del2            =   2.0600382971694E-03
(PID.TID 0000.0001) %MON dynstat_wvel_max             =   6.2720647618859E-01
(PID.TID 0000.0001) %MON dynstat_wvel_min             =  -5.2153117207824E-01
(PID.TID 0000.0001) %MON dynstat_wvel_mean            =  -1.6605150654122E-16
(PID.TID 0000.0001) %MON dynstat_wvel_sd              =   1.0964956052580E-01
(PID.TID 0000.0001) %MON dynstat_wvel_del2            =   1.2102190760041E-04
(PID.TID 0000.0001) %MON dynstat_theta_max            =   1.1580741428028E+03
(PID.TID 0000.0001) %MON dynstat_theta_min            =   2.5448573752195E+02
(PID.TID 0000.0001) %MON dynstat_theta_mean           =   3.2759236641106E+02
(PID.TID 0000.0001) %MON dynstat_theta_sd             =   9.0543267155043E+01
(PID.TID 0000.0001) %MON dynstat_theta_del2           =   7.6550681690535E-04
(PID.TID 0000.0001) %MON dynstat_salt_max             =   2.0315615506196E-02
(PID.TID 0000.0001) %MON dynstat_salt_min             =   0.0000000000000E+00
(PID.TID 0000.0001) %MON dynstat_salt_mean            =   1.7987921923186E-03
(PID.TID 0000.0001) %MON dynstat_salt_sd              =   3.7999293398134E-03
(PID.TID 0000.0001) %MON dynstat_salt_del2            =   1.6519987199606E-07
(PID.TID 0000.0001) %MON trAdv_CFL_u_max              =   1.1097406774072E-01
(PID.TID 0000.0001) %MON trAdv_CFL_v_max              =   1.1095808870458E-01
(PID.TID 0000.0001) %MON trAdv_CFL_w_max              =   2.3190939536628E-02
(PID.TID 0000.0001) %MON advcfl_uvel_max              =   1.0729404649159E-01
(PID.TID 0000.0001) %MON advcfl_vvel_max              =   1.0728170147645E-01
(PID.TID 0000.0001) %MON advcfl_wvel_max              =   2.4410197992205E-02
(PID.TID 0000.0001) %MON advcfl_W_hf_max              =   2.4791154370790E-02
(PID.TID 0000.0001) %MON am_eta_mean                  =  -2.8991609238807E+11
(PID.TID 0000.0001) %MON am_uZo_mean                  =   2.8927691166317E+11
(PID.TID 0000.0001) %MON am_tot_mean                  =  -6.3918072490167E+08
(PID.TID 0000.0001) %MON pe_b_mean                    =   4.8222286291284E+01
(PID.TID 0000.0001) %MON ke_max                       =   6.4186851962086E+02
(PID.TID 0000.0001) %MON ke_mean                      =   1.1654945084529E+02
(PID.TID 0000.0001) %MON ke_vol                       =   5.0986421042785E+19
(PID.TID 0000.0001) %MON vort_r_min                   =  -1.5039164995157E-05
(PID.TID 0000.0001) %MON vort_r_max                   =   1.9954863393614E-05
(PID.TID 0000.0001) %MON vort_a_mean                  =   4.9027103475703E-20
(PID.TID 0000.0001) %MON vort_a_sd                    =   8.5512972546659E-05
(PID.TID 0000.0001) %MON vort_p_mean                  =   5.1478357008549E-20
(PID.TID 0000.0001) %MON vort_p_sd                    =   8.4259973580379E-05
(PID.TID 0000.0001) %MON surfExpan_theta_mean         =  -4.1505993256436E+00
(PID.TID 0000.0001) %MON surfExpan_salt_mean          =  -4.4241236618540E-04
(PID.TID 0000.0001) %MON surfExpan_Heat_mean          =  -3.7248901679351E+02
(PID.TID 0000.0001) %MON En_Budget_T2PE_mean          =   6.8156817777392E+01
(PID.TID 0000.0001) // =======================================================
(PID.TID 0000.0001) // End MONITOR dynamic field statistics
(PID.TID 0000.0001) // =======================================================
 cg2d: Sum(rhs),rhsMax =  -6.33299350738525E-08  4.99315555966063E+04
(PID.TID 0000.0001)      cg2d_init_res =   5.83546485726866E+04
(PID.TID 0000.0001)      cg2d_iters(min,last) =      -1      14
(PID.TID 0000.0001)      cg2d_last_res =   1.80189005621863E-11
(PID.TID 0000.0001) // =======================================================
(PID.TID 0000.0001) // Begin MONITOR dynamic field statistics
(PID.TID 0000.0001) // =======================================================
(PID.TID 0000.0001) %MON time_tsnumber                =                    38
(PID.TID 0000.0001) %MON time_secondsf                =   1.3680000000000E+04
(PID.TID 0000.0001) %MON dynstat_eta_max              =   6.1733837760540E+03
(PID.TID 0000.0001) %MON dynstat_eta_min              =  -4.3689388829035E+03
(PID.TID 0000.0001) %MON dynstat_eta_mean             =   4.2845394688523E-13
(PID.TID 0000.0001) %MON dynstat_eta_sd               =   3.4844030827291E+03
(PID.TID 0000.0001) %MON dynstat_eta_del2             =   9.2313283476079E-01
(PID.TID 0000.0001) %MON dynstat_uvel_max             =   3.5953936139069E+01
(PID.TID 0000.0001) %MON dynstat_uvel_min             =  -3.5948129392970E+01
(PID.TID 0000.0001) %MON dynstat_uvel_mean            =   1.5133137586286E+00
(PID.TID 0000.0001) %MON dynstat_uvel_sd              =   1.0803214192501E+01
(PID.TID 0000.0001) %MON dynstat_uvel_del2            =   1.9972871248283E-03
(PID.TID 0000.0001) %MON dynstat_vvel_max             =   3.5948102765847E+01
(PID.TID 0000.0001) %MON dynstat_vvel_min             =  -3.5946322910818E+01
(PID.TID 0000.0001) %MON dynstat_vvel_mean            =   1.5078694430151E+00
(PID.TID 0000.0001) %MON dynstat_vvel_sd              =   1.0807719986524E+01
(PID.TID 0000.0001) %MON dynstat_vvel_del2            =   2.0816311055701E-03
(PID.TID 0000.0001) %MON dynstat_wvel_max             =   6.3558890300850E-01
(PID.TID 0000.0001) %MON dynstat_wvel_min             =  -5.4443160560826E-01
(PID.TID 0000.0001) %MON dynstat_wvel_mean            =  -1.3334439161643E-16
(PID.TID 0000.0001) %MON dynstat_wvel_sd              =   1.1094576490353E-01
(PID.TID 0000.0001) %MON dynstat_wvel_del2            =   1.2278481169305E-04
(PID.TID 0000.0001) %MON dynstat_theta_max            =   1.1581680071983E+03
(PID.TID 0000.0001) %MON dynstat_theta_min            =   2.5445881113598E+02
(PID.TID 0000.0001) %MON dynstat_theta_mean           =   3.2758289873839E+02
(PID.TID 0000.0001) %MON dynstat_theta_sd             =   9.0549135106476E+01
(PID.TID 0000.0001) %MON dynstat_theta_del2           =   7.6460829161637E-04
(PID.TID 0000.0001) %MON dynstat_salt_max             =   2.0315637401122E-02
(PID.TID 0000.0001) %MON dynstat_salt_min             =   0.0000000000000E+00
(PID.TID 0000.0001) %MON dynstat_salt_mean            =   1.7988811899347E-03
(PID.TID 0000.0001) %MON dynstat_salt_sd              =   3.8000226599432E-03
(PID.TID 0000.0001) %MON dynstat_salt_del2            =   1.6606549229479E-07
(PID.TID 0000.0001) %MON trAdv_CFL_u_max              =   1.1292893303475E-01
(PID.TID 0000.0001) %MON trAdv_CFL_v_max              =   1.1290969536863E-01
(PID.TID 0000.0001) %MON trAdv_CFL_w_max              =   2.4135322410256E-02
(PID.TID 0000.0001) %MON advcfl_uvel_max              =   1.0835657614567E-01
(PID.TID 0000.0001) %MON advcfl_vvel_max              =   1.0834151426619E-01
(PID.TID 0000.0001) %MON advcfl_wvel_max              =   2.4736432981953E-02
(PID.TID 0000.0001) %MON advcfl_W_hf_max              =   2.5170945535510E-02
(PID.TID 0000.0001) %MON am_eta_mean                  =  -2.9993161048569E+11
(PID.TID 0000.0001) %MON am_uZo_mean                  =   2.9925106655371E+11
(PID.TID 0000.0001) %MON am_tot_mean                  =  -6.8054393198346E+08
(PID.TID 0000.0001) %MON pe_b_mean                    =   5.1420750830862E+01
(PID.TID 0000.0001) %MON ke_max                       =   6.5831336503010E+02
(PID.TID 0000.0001) %MON ke_mean                      =   1.1904001845125E+02
(PID.TID 0000.0001) %MON ke_vol                       =   5.0986421042784E+19
(PID.TID 0000.0001) %MON vort_r_min                   =  -1.5463371106099E-05
(PID.TID 0000.0001) %MON vort_r_max                   =   2.0789119671279E-05
(PID.TID 0000.0001) %MON vort_a_mean                  =   1.1031098282033E-19
(PID.TID 0000.0001) %MON vort_a_sd                    =   8.5559780847545E-05
(PID.TID 0000.0001) %MON vort_p_mean                  =   1.1276210523353E-19
(PID.TID 0000.0001) %MON vort_p_sd                    =   8.4262245398756E-05
(PID.TID 0000.0001) %MON surfExpan_theta_mean         =  -4.0192139480558E+00
(PID.TID 0000.0001) %MON surfExpan_salt_mean          =  -4.3190845957384E-04
(PID.TID 0000.0001) %MON surfExpan_Heat_mean          =  -3.6100574189578E+02
(PID.TID 0000.0001) %MON En_Budget_T2PE_mean          =   6.8419590987992E+01
(PID.TID 0000.0001) // =======================================================
(PID.TID 0000.0001) // End MONITOR dynamic field statistics
(PID.TID 0000.0001) // =======================================================
 cg2d: Sum(rhs),rhsMax =   3.72529029846191E-09  5.13244597819954E+04
(PID.TID 0000.0001)      cg2d_init_res =   5.65470588239245E+04
(PID.TID 0000.0001)      cg2d_iters(min,last) =      -1      14
(PID.TID 0000.0001)      cg2d_last_res =   1.85978656876385E-11
(PID.TID 0000.0001) // =======================================================
(PID.TID 0000.0001) // Begin MONITOR dynamic field statistics
(PID.TID 0000.0001) // =======================================================
(PID.TID 0000.0001) %MON time_tsnumber                =                    39
(PID.TID 0000.0001) %MON time_secondsf                =   1.4040000000000E+04
(PID.TID 0000.0001) %MON dynstat_eta_max              =   6.3466417866111E+03
(PID.TID 0000.0001) %MON dynstat_eta_min              =  -4.5080036770351E+03
(PID.TID 0000.0001) %MON dynstat_eta_mean             =  -5.1414473626228E-13
(PID.TID 0000.0001) %MON dynstat_eta_sd               =   3.5910733909614E+03
(PID.TID 0000.0001) %MON dynstat_eta_del2             =   9.3452783781193E-01
(PID.TID 0000.0001) %MON dynstat_uvel_max             =   3.6405593951336E+01
(PID.TID 0000.0001) %MON dynstat_uvel_min             =  -3.6399728723376E+01
(PID.TID 0000.0001) %MON dynstat_uvel_mean            =   1.5594818759082E+00
(PID.TID 0000.0001) %MON dynstat_uvel_sd              =   1.0905685410077E+01
(PID.TID 0000.0001) %MON dynstat_uvel_del2            =   2.0140928235049E-03
(PID.TID 0000.0001) %MON dynstat_vvel_max             =   3.6398423077495E+01
(PID.TID 0000.0001) %MON dynstat_vvel_min             =  -3.6397838901316E+01
(PID.TID 0000.0001) %MON dynstat_vvel_mean            =   1.5535032180172E+00
(PID.TID 0000.0001) %MON dynstat_vvel_sd              =   1.0910262006275E+01
(PID.TID 0000.0001) %MON dynstat_vvel_del2            =   2.1025419421373E-03
(PID.TID 0000.0001) %MON dynstat_wvel_max             =   6.4318770888000E-01
(PID.TID 0000.0001) %MON dynstat_wvel_min             =  -5.6738502182648E-01
(PID.TID 0000.0001) %MON dynstat_wvel_mean            =   6.2898297932280E-17
(PID.TID 0000.0001) %MON dynstat_wvel_sd              =   1.1215766489057E-01
(PID.TID 0000.0001) %MON dynstat_wvel_del2            =   1.2451495839570E-04
(PID.TID 0000.0001) %MON dynstat_theta_max            =   1.1582422683865E+03
(PID.TID 0000.0001) %MON dynstat_theta_min            =   2.5443117636244E+02
(PID.TID 0000.0001) %MON dynstat_theta_mean           =   3.2757324871863E+02
(PID.TID 0000.0001) %MON dynstat_theta_sd             =   9.0555054039236E+01
(PID.TID 0000.0001) %MON dynstat_theta_del2           =   7.6481364365526E-04
(PID.TID 0000.0001) %MON dynstat_salt_max             =   2.0315659701994E-02
(PID.TID 0000.0001) %MON dynstat_salt_min             =   1.2214112216815-239
(PID.TID 0000.0001) %MON dynstat_salt_mean            =   1.7989882511527E-03
(PID.TID 0000.0001) %MON dynstat_salt_sd              =   3.8001595301183E-03
(PID.TID 0000.0001) %MON dynstat_salt_del2            =   1.6692876107072E-07
(PID.TID 0000.0001) %MON trAdv_CFL_u_max              =   1.1477129577221E-01
(PID.TID 0000.0001) %MON trAdv_CFL_v_max              =   1.1475010631496E-01
(PID.TID 0000.0001) %MON trAdv_CFL_w_max              =   2.5077162519491E-02
(PID.TID 0000.0001) %MON advcfl_uvel_max              =   1.0928465357055E-01
(PID.TID 0000.0001) %MON advcfl_vvel_max              =   1.0926636947364E-01
(PID.TID 0000.0001) %MON advcfl_wvel_max              =   2.5032170291546E-02
(PID.TID 0000.0001) %MON advcfl_W_hf_max              =   2.5525098084118E-02
(PID.TID 0000.0001) %MON am_eta_mean                  =  -3.0965935537585E+11
(PID.TID 0000.0001) %MON am_uZo_mean                  =   3.0893756517392E+11
(PID.TID 0000.0001) %MON am_tot_mean                  =  -7.2179020192664E+08
(PID.TID 0000.0001) %MON pe_b_mean                    =   5.4617296226800E+01
(PID.TID 0000.0001) %MON ke_max                       =   6.7399471548901E+02
(PID.TID 0000.0001) %MON ke_mean                      =   1.2140657359545E+02
(PID.TID 0000.0001) %MON ke_vol                       =   5.0986421042785E+19
(PID.TID 0000.0001) %MON vort_r_min                   =  -1.5866835158562E-05
(PID.TID 0000.0001) %MON vort_r_max                   =   2.1696120629307E-05
(PID.TID 0000.0001) %MON vort_a_mean                  =  -1.9855976907660E-19
(PID.TID 0000.0001) %MON vort_a_sd                    =   8.5605434836165E-05
(PID.TID 0000.0001) %MON vort_p_mean                  =  -1.9855934102408E-19
(PID.TID 0000.0001) %MON vort_p_sd                    =   8.4264581495758E-05
(PID.TID 0000.0001) %MON surfExpan_theta_mean         =  -3.8767107144836E+00
(PID.TID 0000.0001) %MON surfExpan_salt_mean          =  -4.2018442791713E-04
(PID.TID 0000.0001) %MON surfExpan_Heat_mean          =  -3.4850043209828E+02
(PID.TID 0000.0001) %MON En_Budget_T2PE_mean          =   6.8593821275293E+01
(PID.TID 0000.0001) // =======================================================
(PID.TID 0000.0001) // End MONITOR dynamic field statistics
(PID.TID 0000.0001) // =======================================================
 cg2d: Sum(rhs),rhsMax =   7.45058059692383E-09  5.26489344627799E+04
(PID.TID 0000.0001)      cg2d_init_res =   5.45822036305170E+04
(PID.TID 0000.0001)      cg2d_iters(min,last) =      -1      14
(PID.TID 0000.0001)      cg2d_last_res =   1.91091013286952E-11
(PID.TID 0000.0001) // =======================================================
(PID.TID 0000.0001) // Begin MONITOR dynamic field statistics
(PID.TID 0000.0001) // =======================================================
(PID.TID 0000.0001) %MON time_tsnumber                =                    40
(PID.TID 0000.0001) %MON time_secondsf                =   1.4400000000000E+04
(PID.TID 0000.0001) %MON dynstat_eta_max              =   6.5113726756494E+03
(PID.TID 0000.0001) %MON dynstat_eta_min              =  -4.6432734862101E+03
(PID.TID 0000.0001) %MON dynstat_eta_mean             =   1.0282894725246E-12
(PID.TID 0000.0001) %MON dynstat_eta_sd               =   3.6940000297234E+03
(PID.TID 0000.0001) %MON dynstat_eta_del2             =   9.4552435160330E-01
(PID.TID 0000.0001) %MON dynstat_uvel_max             =   3.6816049154049E+01
(PID.TID 0000.0001) %MON dynstat_uvel_min             =  -3.6810167964011E+01
(PID.TID 0000.0001) %MON dynstat_uvel_mean            =   1.6040447866643E+00
(PID.TID 0000.0001) %MON dynstat_uvel_sd              =   1.1001941886468E+01
(PID.TID 0000.0001) %MON dynstat_uvel_del2            =   2.0303603224269E-03
(PID.TID 0000.0001) %MON dynstat_vvel_max             =   3.6807377030001E+01
(PID.TID 0000.0001) %MON dynstat_vvel_min             =  -3.6808194548904E+01
(PID.TID 0000.0001) %MON dynstat_vvel_mean            =   1.5975132415334E+00
(PID.TID 0000.0001) %MON dynstat_vvel_sd              =   1.1006546652455E+01
(PID.TID 0000.0001) %MON dynstat_vvel_del2            =   2.1228920644577E-03
(PID.TID 0000.0001) %MON dynstat_wvel_max             =   6.5002131862412E-01
(PID.TID 0000.0001) %MON dynstat_wvel_min             =  -5.9036618155289E-01
(PID.TID 0000.0001) %MON dynstat_wvel_mean            =  -1.5598777887205E-16
(PID.TID 0000.0001) %MON dynstat_wvel_sd              =   1.1328882274767E-01
(PID.TID 0000.0001) %MON dynstat_wvel_del2            =   1.2621782285332E-04
(PID.TID 0000.0001) %MON dynstat_theta_max            =   1.1584120682325E+03
(PID.TID 0000.0001) %MON dynstat_theta_min            =   2.5440284208637E+02
(PID.TID 0000.0001) %MON dynstat_theta_mean           =   3.2756340634398E+02
(PID.TID 0000.0001) %MON dynstat_theta_sd             =   9.0561026113233E+01
(PID.TID 0000.0001) %MON dynstat_theta_del2           =   7.6653101547449E-04
(PID.TID 0000.0001) %MON dynstat_salt_max             =   2.0315682400466E-02
(PID.TID 0000.0001) %MON dynstat_salt_min             =   1.1932731563409-208
(PID.TID 0000.0001) %MON dynstat_salt_mean            =   1.7991164343503E-03
(PID.TID 0000.0001) %MON dynstat_salt_sd              =   3.8003482261184E-03
(PID.TID 0000.0001) %MON dynstat_salt_del2            =   1.6780304196471E-07
(PID.TID 0000.0001) %MON trAdv_CFL_u_max              =   1.1649887009590E-01
(PID.TID 0000.0001) %MON trAdv_CFL_v_max              =   1.1647724578405E-01
(PID.TID 0000.0001) %MON trAdv_CFL_w_max              =   2.6015616847967E-02
(PID.TID 0000.0001) %MON advcfl_uvel_max              =   1.1007879500111E-01
(PID.TID 0000.0001) %MON advcfl_vvel_max              =   1.1005989234252E-01
(PID.TID 0000.0001) %MON advcfl_wvel_max              =   2.5298126995101E-02
(PID.TID 0000.0001) %MON advcfl_W_hf_max              =   2.6015616847967E-02
(PID.TID 0000.0001) %MON am_eta_mean                  =  -3.1907023323449E+11
(PID.TID 0000.0001) %MON am_uZo_mean                  =   3.1830778761072E+11
(PID.TID 0000.0001) %MON am_tot_mean                  =  -7.6244562377264E+08
(PID.TID 0000.0001) %MON pe_b_mean                    =   5.7793024669078E+01
(PID.TID 0000.0001) %MON ke_max                       =   6.8890702632903E+02
(PID.TID 0000.0001) %MON ke_mean                      =   1.2365590131458E+02
(PID.TID 0000.0001) %MON ke_vol                       =   5.0986421042784E+19
(PID.TID 0000.0001) %MON vort_r_min                   =  -1.6248058367556E-05
(PID.TID 0000.0001) %MON vort_r_max                   =   2.2604791926748E-05
(PID.TID 0000.0001) %MON vort_a_mean                  =  -1.2501911386304E-19
(PID.TID 0000.0001) %MON vort_a_sd                    =   8.5649795136042E-05
(PID.TID 0000.0001) %MON vort_p_mean                  =  -1.2011613334058E-19
(PID.TID 0000.0001) %MON vort_p_sd                    =   8.4266981701111E-05
(PID.TID 0000.0001) %MON surfExpan_theta_mean         =  -3.7235985063382E+00
(PID.TID 0000.0001) %MON surfExpan_salt_mean          =  -4.0726996408507E-04
(PID.TID 0000.0001) %MON surfExpan_Heat_mean          =  -3.3501651069155E+02
(PID.TID 0000.0001) %MON En_Budget_T2PE_mean          =   6.8680424793250E+01
(PID.TID 0000.0001) // =======================================================
(PID.TID 0000.0001) // End MONITOR dynamic field statistics
(PID.TID 0000.0001) // =======================================================
(PID.TID 0000.0001) %CHECKPOINT        40 ckptA
(PID.TID 0000.0001)   Seconds in section "ALL                    [THE_MODEL_MAIN]":
(PID.TID 0000.0001)           User time:   86.609377838671207
(PID.TID 0000.0001)         System time:   1.7782219722867012
(PID.TID 0000.0001)     Wall clock time:   88.477336883544922
(PID.TID 0000.0001)          No. starts:           1
(PID.TID 0000.0001)           No. stops:           1
(PID.TID 0000.0001)   Seconds in section "INITIALISE_FIXED       [THE_MODEL_MAIN]":
(PID.TID 0000.0001)           User time:  0.76913499832153320
(PID.TID 0000.0001)         System time:  0.13358299434185028
(PID.TID 0000.0001)     Wall clock time:  0.93863797187805176
(PID.TID 0000.0001)          No. starts:           1
(PID.TID 0000.0001)           No. stops:           1
(PID.TID 0000.0001)   Seconds in section "THE_MAIN_LOOP          [THE_MODEL_MAIN]":
(PID.TID 0000.0001)           User time:   85.835897862911224
(PID.TID 0000.0001)         System time:   1.6445830613374710
(PID.TID 0000.0001)     Wall clock time:   87.534327030181885
(PID.TID 0000.0001)          No. starts:           1
(PID.TID 0000.0001)           No. stops:           1
(PID.TID 0000.0001)   Seconds in section "INITIALISE_VARIA    [THE_MAIN_LOOP]":
(PID.TID 0000.0001)           User time:  0.88278996944427490
(PID.TID 0000.0001)         System time:  0.47731199860572815
(PID.TID 0000.0001)     Wall clock time:   1.3804540634155273
(PID.TID 0000.0001)          No. starts:           1
(PID.TID 0000.0001)           No. stops:           1
(PID.TID 0000.0001)   Seconds in section "MAIN LOOP           [THE_MAIN_LOOP]":
(PID.TID 0000.0001)           User time:   84.953074574470520
(PID.TID 0000.0001)         System time:   1.1672650575637817
(PID.TID 0000.0001)     Wall clock time:   86.153832912445068
(PID.TID 0000.0001)          No. starts:           1
(PID.TID 0000.0001)           No. stops:           1
(PID.TID 0000.0001)   Seconds in section "MAIN_DO_LOOP        [THE_MAIN_LOOP]":
(PID.TID 0000.0001)           User time:   84.952724337577820
(PID.TID 0000.0001)         System time:   1.1672630310058594
(PID.TID 0000.0001)     Wall clock time:   86.153466939926147
(PID.TID 0000.0001)          No. starts:          40
(PID.TID 0000.0001)           No. stops:          40
(PID.TID 0000.0001)   Seconds in section "FORWARD_STEP        [MAIN_DO_LOOP]":
(PID.TID 0000.0001)           User time:   84.952025055885315
(PID.TID 0000.0001)         System time:   1.1672589778900146
(PID.TID 0000.0001)     Wall clock time:   86.152772903442383
(PID.TID 0000.0001)          No. starts:          40
(PID.TID 0000.0001)           No. stops:          40
(PID.TID 0000.0001)   Seconds in section "DO_STATEVARS_DIAGS  [FORWARD_STEP]":
(PID.TID 0000.0001)           User time:   6.7966533899307251
(PID.TID 0000.0001)         System time:   1.5974044799804688E-005
(PID.TID 0000.0001)     Wall clock time:   6.7989480495452881
(PID.TID 0000.0001)          No. starts:         120
(PID.TID 0000.0001)           No. stops:         120
(PID.TID 0000.0001)   Seconds in section "LOAD_FIELDS_DRIVER  [FORWARD_STEP]":
(PID.TID 0000.0001)           User time:   7.9249143600463867E-002
(PID.TID 0000.0001)         System time:   2.5600194931030273E-004
(PID.TID 0000.0001)     Wall clock time:   7.9524993896484375E-002
(PID.TID 0000.0001)          No. starts:          40
(PID.TID 0000.0001)           No. stops:          40
(PID.TID 0000.0001)   Seconds in section "CPL_EXPORT-IMPORT  [FORWARD_STEP]":
(PID.TID 0000.0001)           User time:  0.81115651130676270
(PID.TID 0000.0001)         System time:   2.5249719619750977E-003
(PID.TID 0000.0001)     Wall clock time:  0.81368732452392578
(PID.TID 0000.0001)          No. starts:          40
(PID.TID 0000.0001)           No. stops:          40
(PID.TID 0000.0001)   Seconds in section "DO_ATMOSPHERIC_PHYS [FORWARD_STEP]":
(PID.TID 0000.0001)           User time:   12.286892175674438
(PID.TID 0000.0001)         System time:   1.0475577116012573
(PID.TID 0000.0001)     Wall clock time:   13.357947587966919
(PID.TID 0000.0001)          No. starts:          40
(PID.TID 0000.0001)           No. stops:          40
(PID.TID 0000.0001)   Seconds in section "ATM_PHYS_DRIVER [DO_ATMOSPHERIC_PHYS]":
(PID.TID 0000.0001)           User time:   11.988385200500488
(PID.TID 0000.0001)         System time:   1.0461530089378357
(PID.TID 0000.0001)     Wall clock time:   13.058109521865845
(PID.TID 0000.0001)          No. starts:          40
(PID.TID 0000.0001)           No. stops:          40
(PID.TID 0000.0001)   Seconds in section "DO_OCEANIC_PHYS     [FORWARD_STEP]":
(PID.TID 0000.0001)           User time:   1.0690689086914062E-003
(PID.TID 0000.0001)         System time:   4.6193599700927734E-005
(PID.TID 0000.0001)     Wall clock time:   1.1072158813476562E-003
(PID.TID 0000.0001)          No. starts:          40
(PID.TID 0000.0001)           No. stops:          40
(PID.TID 0000.0001)   Seconds in section "DYNAMICS            [FORWARD_STEP]":
(PID.TID 0000.0001)           User time:   18.767872095108032
(PID.TID 0000.0001)         System time:   4.0197968482971191E-003
(PID.TID 0000.0001)     Wall clock time:   18.774631977081299
(PID.TID 0000.0001)          No. starts:          40
(PID.TID 0000.0001)           No. stops:          40
(PID.TID 0000.0001)   Seconds in section "UPDATE_R_STAR       [FORWARD_STEP]":
(PID.TID 0000.0001)           User time:   1.4534523487091064
(PID.TID 0000.0001)         System time:   7.3301792144775391E-004
(PID.TID 0000.0001)     Wall clock time:   1.4548819065093994
(PID.TID 0000.0001)          No. starts:          40
(PID.TID 0000.0001)           No. stops:          40
(PID.TID 0000.0001)   Seconds in section "UPDATE_CG2D         [FORWARD_STEP]":
(PID.TID 0000.0001)           User time:  0.46775150299072266
(PID.TID 0000.0001)         System time:   1.1098384857177734E-004
(PID.TID 0000.0001)     Wall clock time:  0.46803021430969238
(PID.TID 0000.0001)          No. starts:          40
(PID.TID 0000.0001)           No. stops:          40
(PID.TID 0000.0001)   Seconds in section "SOLVE_FOR_PRESSURE  [FORWARD_STEP]":
(PID.TID 0000.0001)           User time:   1.6119408607482910
(PID.TID 0000.0001)         System time:   4.1481256484985352E-003
(PID.TID 0000.0001)     Wall clock time:   1.6162116527557373
(PID.TID 0000.0001)          No. starts:          40
(PID.TID 0000.0001)           No. stops:          40
(PID.TID 0000.0001)   Seconds in section "MOM_CORRECTION_STEP [FORWARD_STEP]":
(PID.TID 0000.0001)           User time:   8.6908719539642334
(PID.TID 0000.0001)         System time:   1.5709757804870605E-002
(PID.TID 0000.0001)     Wall clock time:   8.7079622745513916
(PID.TID 0000.0001)          No. starts:          40
(PID.TID 0000.0001)           No. stops:          40
(PID.TID 0000.0001)   Seconds in section "SHAP_FILT_UV       [MOM_CORR_STEP]":
(PID.TID 0000.0001)           User time:   7.9557979106903076
(PID.TID 0000.0001)         System time:   1.5521109104156494E-002
(PID.TID 0000.0001)     Wall clock time:   7.9724876880645752
(PID.TID 0000.0001)          No. starts:          40
(PID.TID 0000.0001)           No. stops:          40
(PID.TID 0000.0001)   Seconds in section "INTEGR_CONTINUITY   [FORWARD_STEP]":
(PID.TID 0000.0001)           User time:   1.4904170036315918
(PID.TID 0000.0001)         System time:   5.1975250244140625E-005
(PID.TID 0000.0001)     Wall clock time:   1.4906227588653564
(PID.TID 0000.0001)          No. starts:          40
(PID.TID 0000.0001)           No. stops:          40
(PID.TID 0000.0001)   Seconds in section "CALC_R_STAR         [FORWARD_STEP]":
(PID.TID 0000.0001)           User time:  0.16174483299255371
(PID.TID 0000.0001)         System time:   5.1975250244140625E-005
(PID.TID 0000.0001)     Wall clock time:  0.16192269325256348
(PID.TID 0000.0001)          No. starts:          40
(PID.TID 0000.0001)           No. stops:          40
(PID.TID 0000.0001)   Seconds in section "BLOCKING_EXCHANGES  [FORWARD_STEP]":
(PID.TID 0000.0001)           User time:   1.1234984397888184
(PID.TID 0000.0001)         System time:   2.4604797363281250E-004
(PID.TID 0000.0001)     Wall clock time:   1.1239578723907471
(PID.TID 0000.0001)          No. starts:          80
(PID.TID 0000.0001)           No. stops:          80
(PID.TID 0000.0001)   Seconds in section "THERMODYNAMICS      [FORWARD_STEP]":
(PID.TID 0000.0001)           User time:   17.826267719268799
(PID.TID 0000.0001)         System time:   1.5805006027221680E-002
(PID.TID 0000.0001)     Wall clock time:   17.844073057174683
(PID.TID 0000.0001)          No. starts:          40
(PID.TID 0000.0001)           No. stops:          40
(PID.TID 0000.0001)   Seconds in section "TRC_CORRECTION_STEP [FORWARD_STEP]":
(PID.TID 0000.0001)           User time:   3.1915464401245117
(PID.TID 0000.0001)         System time:   1.0132789611816406E-006
(PID.TID 0000.0001)     Wall clock time:   3.1917867660522461
(PID.TID 0000.0001)          No. starts:          40
(PID.TID 0000.0001)           No. stops:          40
(PID.TID 0000.0001)   Seconds in section "SHAP_FILT_TS       [TRC_CORR_STEP]":
(PID.TID 0000.0001)           User time:   3.1905865669250488
(PID.TID 0000.0001)         System time:   0.0000000000000000
(PID.TID 0000.0001)     Wall clock time:   3.1909859180450439
(PID.TID 0000.0001)          No. starts:          40
(PID.TID 0000.0001)           No. stops:          40
(PID.TID 0000.0001)   Seconds in section "DO_STATEVARS_TAVE   [FORWARD_STEP]":
(PID.TID 0000.0001)           User time:   3.3569335937500000E-004
(PID.TID 0000.0001)         System time:   3.0994415283203125E-006
(PID.TID 0000.0001)     Wall clock time:   3.5333633422851562E-004
(PID.TID 0000.0001)          No. starts:          40
(PID.TID 0000.0001)           No. stops:          40
(PID.TID 0000.0001)   Seconds in section "MONITOR             [FORWARD_STEP]":
(PID.TID 0000.0001)           User time:   10.022040843963623
(PID.TID 0000.0001)         System time:   0.0000000000000000
(PID.TID 0000.0001)     Wall clock time:   10.023193359375000
(PID.TID 0000.0001)          No. starts:          40
(PID.TID 0000.0001)           No. stops:          40
(PID.TID 0000.0001)   Seconds in section "DO_THE_MODEL_IO     [FORWARD_STEP]":
(PID.TID 0000.0001)           User time:  0.10257530212402344
(PID.TID 0000.0001)         System time:   2.4003982543945312E-002
(PID.TID 0000.0001)     Wall clock time:  0.12658405303955078
(PID.TID 0000.0001)          No. starts:          40
(PID.TID 0000.0001)           No. stops:          40
(PID.TID 0000.0001)   Seconds in section "DO_WRITE_PICKUP     [FORWARD_STEP]":
(PID.TID 0000.0001)           User time:   5.6859493255615234E-002
(PID.TID 0000.0001)         System time:   5.1875948905944824E-002
(PID.TID 0000.0001)     Wall clock time:  0.10884118080139160
(PID.TID 0000.0001)          No. starts:          40
(PID.TID 0000.0001)           No. stops:          40
(PID.TID 0000.0001) // ======================================================
(PID.TID 0000.0001) // Tile <-> Tile communication statistics
(PID.TID 0000.0001) // ======================================================
(PID.TID 0000.0001) // o Tile number: 000001
(PID.TID 0000.0001) //         No. X exchanges =              0
(PID.TID 0000.0001) //            Max. X spins =              0
(PID.TID 0000.0001) //            Min. X spins =     1000000000
(PID.TID 0000.0001) //          Total. X spins =              0
(PID.TID 0000.0001) //            Avg. X spins =       0.00E+00
(PID.TID 0000.0001) //         No. Y exchanges =              0
(PID.TID 0000.0001) //            Max. Y spins =              0
(PID.TID 0000.0001) //            Min. Y spins =     1000000000
(PID.TID 0000.0001) //          Total. Y spins =              0
(PID.TID 0000.0001) //            Avg. Y spins =       0.00E+00
(PID.TID 0000.0001) // o Tile number: 000002
(PID.TID 0000.0001) //         No. X exchanges =              0
(PID.TID 0000.0001) //            Max. X spins =              0
(PID.TID 0000.0001) //            Min. X spins =     1000000000
(PID.TID 0000.0001) //          Total. X spins =              0
(PID.TID 0000.0001) //            Avg. X spins =       0.00E+00
(PID.TID 0000.0001) //         No. Y exchanges =              0
(PID.TID 0000.0001) //            Max. Y spins =              0
(PID.TID 0000.0001) //            Min. Y spins =     1000000000
(PID.TID 0000.0001) //          Total. Y spins =              0
(PID.TID 0000.0001) //            Avg. Y spins =       0.00E+00
(PID.TID 0000.0001) // o Tile number: 000003
(PID.TID 0000.0001) //         No. X exchanges =              0
(PID.TID 0000.0001) //            Max. X spins =              0
(PID.TID 0000.0001) //            Min. X spins =     1000000000
(PID.TID 0000.0001) //          Total. X spins =              0
(PID.TID 0000.0001) //            Avg. X spins =       0.00E+00
(PID.TID 0000.0001) //         No. Y exchanges =              0
(PID.TID 0000.0001) //            Max. Y spins =              0
(PID.TID 0000.0001) //            Min. Y spins =     1000000000
(PID.TID 0000.0001) //          Total. Y spins =              0
(PID.TID 0000.0001) //            Avg. Y spins =       0.00E+00
(PID.TID 0000.0001) // o Tile number: 000004
(PID.TID 0000.0001) //         No. X exchanges =              0
(PID.TID 0000.0001) //            Max. X spins =              0
(PID.TID 0000.0001) //            Min. X spins =     1000000000
(PID.TID 0000.0001) //          Total. X spins =              0
(PID.TID 0000.0001) //            Avg. X spins =       0.00E+00
(PID.TID 0000.0001) //         No. Y exchanges =              0
(PID.TID 0000.0001) //            Max. Y spins =              0
(PID.TID 0000.0001) //            Min. Y spins =     1000000000
(PID.TID 0000.0001) //          Total. Y spins =              0
(PID.TID 0000.0001) //            Avg. Y spins =       0.00E+00
(PID.TID 0000.0001) // o Tile number: 000005
(PID.TID 0000.0001) //         No. X exchanges =              0
(PID.TID 0000.0001) //            Max. X spins =              0
(PID.TID 0000.0001) //            Min. X spins =     1000000000
(PID.TID 0000.0001) //          Total. X spins =              0
(PID.TID 0000.0001) //            Avg. X spins =       0.00E+00
(PID.TID 0000.0001) //         No. Y exchanges =              0
(PID.TID 0000.0001) //            Max. Y spins =              0
(PID.TID 0000.0001) //            Min. Y spins =     1000000000
(PID.TID 0000.0001) //          Total. Y spins =              0
(PID.TID 0000.0001) //            Avg. Y spins =       0.00E+00
(PID.TID 0000.0001) // o Tile number: 000006
(PID.TID 0000.0001) //         No. X exchanges =              0
(PID.TID 0000.0001) //            Max. X spins =              0
(PID.TID 0000.0001) //            Min. X spins =     1000000000
(PID.TID 0000.0001) //          Total. X spins =              0
(PID.TID 0000.0001) //            Avg. X spins =       0.00E+00
(PID.TID 0000.0001) //         No. Y exchanges =              0
(PID.TID 0000.0001) //            Max. Y spins =              0
(PID.TID 0000.0001) //            Min. Y spins =     1000000000
(PID.TID 0000.0001) //          Total. Y spins =              0
(PID.TID 0000.0001) //            Avg. Y spins =       0.00E+00
(PID.TID 0000.0001) // o Thread number: 000001
(PID.TID 0000.0001) //            No. barriers =          18318
(PID.TID 0000.0001) //      Max. barrier spins =              1
(PID.TID 0000.0001) //      Min. barrier spins =              1
(PID.TID 0000.0001) //     Total barrier spins =          18318
(PID.TID 0000.0001) //      Avg. barrier spins =       1.00E+00
PROGRAM MAIN: Execution ended Normally
