(PID.TID 0000.0001) 
(PID.TID 0000.0001) // ======================================================
(PID.TID 0000.0001) //                      MITgcm UV
(PID.TID 0000.0001) //                      =========
(PID.TID 0000.0001) // ======================================================
(PID.TID 0000.0001) // execution environment starting up...
(PID.TID 0000.0001) 
(PID.TID 0000.0001) // MITgcmUV version:  checkpoint68s
(PID.TID 0000.0001) // Build user:        jm_c
(PID.TID 0000.0001) // Build host:        villon
(PID.TID 0000.0001) // Build date:        Wed Oct 18 15:32:48 EDT 2023
(PID.TID 0000.0001) 
(PID.TID 0000.0001) // =======================================================
(PID.TID 0000.0001) // Execution Environment parameter file "eedata"
(PID.TID 0000.0001) // =======================================================
(PID.TID 0000.0001) ># Example "eedata" file
(PID.TID 0000.0001) ># Lines beginning "#" are comments
(PID.TID 0000.0001) >#  nTx      :: No. threads per process in X
(PID.TID 0000.0001) >#  nTy      :: No. threads per process in Y
(PID.TID 0000.0001) ># debugMode :: print debug msg (sequence of S/R calls)
(PID.TID 0000.0001) > &EEPARMS
(PID.TID 0000.0001) > nTx=1,
(PID.TID 0000.0001) > nTy=1,
(PID.TID 0000.0001) > useSETRLSTK=.TRUE.,
(PID.TID 0000.0001) >#debugMode=.TRUE.,
(PID.TID 0000.0001) > /
(PID.TID 0000.0001) ># Note: Some systems use & as the namelist terminator (as shown here).
(PID.TID 0000.0001) >#       Other systems use a / character.
(PID.TID 0000.0001) 
(PID.TID 0000.0001) // =======================================================
(PID.TID 0000.0001) // Computational Grid Specification ( see files "SIZE.h" )
(PID.TID 0000.0001) //                                  ( and "eedata"       )
(PID.TID 0000.0001) // =======================================================
(PID.TID 0000.0001)      nPx =    1 ; /* No. processes in X */
(PID.TID 0000.0001)      nPy =    1 ; /* No. processes in Y */
(PID.TID 0000.0001)      nSx =    9 ; /* No. tiles in X per process */
(PID.TID 0000.0001)      nSy =    4 ; /* No. tiles in Y per process */
(PID.TID 0000.0001)      sNx =   10 ; /* Tile size in X */
(PID.TID 0000.0001)      sNy =   10 ; /* Tile size in Y */
(PID.TID 0000.0001)      OLx =    3 ; /* Tile overlap distance in X */
(PID.TID 0000.0001)      OLy =    3 ; /* Tile overlap distance in Y */
(PID.TID 0000.0001)      nTx =    1 ; /* No. threads in X per process */
(PID.TID 0000.0001)      nTy =    1 ; /* No. threads in Y per process */
(PID.TID 0000.0001)       Nr =   15 ; /* No. levels in the vertical   */
(PID.TID 0000.0001)       Nx =   90 ; /* Total domain size in X ( = nPx*nSx*sNx ) */
(PID.TID 0000.0001)       Ny =   40 ; /* Total domain size in Y ( = nPy*nSy*sNy ) */
(PID.TID 0000.0001)   nTiles =   36 ; /* Total no. tiles per process ( = nSx*nSy ) */
(PID.TID 0000.0001)   nProcs =    1 ; /* Total no. processes ( = nPx*nPy ) */
(PID.TID 0000.0001) nThreads =    1 ; /* Total no. threads per process ( = nTx*nTy ) */
(PID.TID 0000.0001) usingMPI =    F ; /* Flag used to control whether MPI is in use */
(PID.TID 0000.0001)                   /*  note: To execute a program with MPI calls */
(PID.TID 0000.0001)                   /*  it must be launched appropriately e.g     */
(PID.TID 0000.0001)                   /*  "mpirun -np 64 ......"                    */
(PID.TID 0000.0001) useCoupler=   F ; /* Flag used to control communications with   */
(PID.TID 0000.0001)                   /*  other model components, through a coupler */
(PID.TID 0000.0001) useNest2W_parent =    F ;/* Control 2-W Nesting comm */
(PID.TID 0000.0001) useNest2W_child  =    F ;/* Control 2-W Nesting comm */
(PID.TID 0000.0001) debugMode =    F ; /* print debug msg. (sequence of S/R calls)  */
(PID.TID 0000.0001) printMapIncludesZeros=    F ; /* print zeros in Std.Output maps */
(PID.TID 0000.0001) maxLengthPrt1D=   65 /* maxLength of 1D array printed to StdOut */
(PID.TID 0000.0001) 
(PID.TID 0000.0001) // ======================================================
(PID.TID 0000.0001) // Mapping of tiles to threads
(PID.TID 0000.0001) // ======================================================
(PID.TID 0000.0001) // -o- Thread   1, tiles (   1:   9,   1:   4)
(PID.TID 0000.0001) 
(PID.TID 0000.0001) W2_READPARMS: file data.exch2 not found
(PID.TID 0000.0001) => use W2_EXCH2 default: Single sub-domain (nFacets=1)
(PID.TID 0000.0001) W2_useE2ioLayOut=    T ;/* T: use Exch2 glob IO map; F: use model default */
(PID.TID 0000.0001) W2_mapIO        =  -1 ; /* select option for Exch2 global-IO map */
(PID.TID 0000.0001) W2_printMsg     =  -1 ; /* select option for printing information */
(PID.TID 0000.0001) ===== Start setting W2 TOPOLOGY:
(PID.TID 0000.0001)  write to log-file: w2_tile_topology.0000.log
(PID.TID 0000.0001) =====       setting W2 TOPOLOGY: Done
(PID.TID 0000.0001) 
(PID.TID 0000.0001)  INI_PARMS: opening model parameter file "data"
(PID.TID 0000.0001)  OPEN_COPY_DATA_FILE: opening file data
(PID.TID 0000.0001) // =======================================================
(PID.TID 0000.0001) // Parameter file "data"
(PID.TID 0000.0001) // =======================================================
(PID.TID 0000.0001) ># ====================
(PID.TID 0000.0001) ># | Model parameters |
(PID.TID 0000.0001) ># ====================
(PID.TID 0000.0001) >#
(PID.TID 0000.0001) ># Continuous equation parameters
(PID.TID 0000.0001) > &PARM01
(PID.TID 0000.0001) > tRef = 15*20.,
(PID.TID 0000.0001) > sRef = 15*35.,
(PID.TID 0000.0001) > viscAr=1.E-3,
(PID.TID 0000.0001) > viscAh=5.E5,
(PID.TID 0000.0001) > viscA4=1.E14,
(PID.TID 0000.0001) > diffKhT=0.,
(PID.TID 0000.0001) > diffKrT=3.E-5,
(PID.TID 0000.0001) > diffKhS=0.,
(PID.TID 0000.0001) > diffKrS=3.E-5,
(PID.TID 0000.0001) > rhoConst=1035.,
(PID.TID 0000.0001) > rhoConstFresh=1000.,
(PID.TID 0000.0001) > gravity=9.81,
(PID.TID 0000.0001) > eosType='JMD95P',
(PID.TID 0000.0001) > ivdc_kappa=10.,
(PID.TID 0000.0001) > implicitDiffusion=.TRUE.,
(PID.TID 0000.0001) > allowFreezing=.TRUE.,
(PID.TID 0000.0001) > exactConserv=.TRUE.,
(PID.TID 0000.0001) > select_rStar=2,
(PID.TID 0000.0001) > nonlinFreeSurf=4,
(PID.TID 0000.0001) > hFacInf=0.2,
(PID.TID 0000.0001) > hFacSup=2.0,
(PID.TID 0000.0001) > useRealFreshWaterFlux=.TRUE.,
(PID.TID 0000.0001) > useCDscheme=.TRUE.,
(PID.TID 0000.0001) > quasiHydrostatic=.TRUE.,
(PID.TID 0000.0001) > useNHMTerms=.TRUE.,
(PID.TID 0000.0001) ># turn on looped cells
(PID.TID 0000.0001) > hFacMin=.05,
(PID.TID 0000.0001) > hFacMindr=50.,
(PID.TID 0000.0001) >#- to check that it has no impact:
(PID.TID 0000.0001) > doResetHFactors=.TRUE.,
(PID.TID 0000.0001) ># set precision of data files
(PID.TID 0000.0001) > readBinaryPrec=32,
(PID.TID 0000.0001) >#writeBinaryPrec=64,
(PID.TID 0000.0001) > /
(PID.TID 0000.0001) >
(PID.TID 0000.0001) ># Elliptic solver parameters
(PID.TID 0000.0001) > &PARM02
(PID.TID 0000.0001) > cg2dMaxIters=500,
(PID.TID 0000.0001) > cg2dTargetResidual=1.E-13,
(PID.TID 0000.0001) > /
(PID.TID 0000.0001) >
(PID.TID 0000.0001) ># Time stepping parameters
(PID.TID 0000.0001) > &PARM03
(PID.TID 0000.0001) > nIter0=0,
(PID.TID 0000.0001) > nTimeSteps=10,
(PID.TID 0000.0001) ># 100 years of integration will yield a reasonable flow field
(PID.TID 0000.0001) ># startTime =          0.,
(PID.TID 0000.0001) ># endTime   = 3110400000.,
(PID.TID 0000.0001) > deltaTmom = 1800.,
(PID.TID 0000.0001) > tauCD =     321428.,
(PID.TID 0000.0001) > deltaTtracer= 86400.,
(PID.TID 0000.0001) > deltaTClock = 86400.,
(PID.TID 0000.0001) > deltaTfreesurf= 86400.,
(PID.TID 0000.0001) > abEps = 0.1,
(PID.TID 0000.0001) > pChkPtFreq= 311040000.,
(PID.TID 0000.0001) > dumpFreq=   311040000.,
(PID.TID 0000.0001) > dumpFreq=   864000.,
(PID.TID 0000.0001) >#monitorFreq=31104000.,
(PID.TID 0000.0001) > monitorFreq=1.,
(PID.TID 0000.0001) ># 2 months restoring timescale for temperature
(PID.TID 0000.0001) > tauThetaClimRelax=  5184000.,
(PID.TID 0000.0001) ># 6 months restoring timescale for salinity
(PID.TID 0000.0001) > tauSaltClimRelax = 15552000.,
(PID.TID 0000.0001) > periodicExternalForcing=.TRUE.,
(PID.TID 0000.0001) > externForcingPeriod=2592000.,
(PID.TID 0000.0001) > externForcingCycle=31104000.,
(PID.TID 0000.0001) > /
(PID.TID 0000.0001) >
(PID.TID 0000.0001) ># Gridding parameters
(PID.TID 0000.0001) > &PARM04
(PID.TID 0000.0001) > usingSphericalPolarGrid=.TRUE.,
(PID.TID 0000.0001) > delR= 50.,  70., 100., 140., 190.,
(PID.TID 0000.0001) >      240., 290., 340., 390., 440.,
(PID.TID 0000.0001) >      490., 540., 590., 640., 690.,
(PID.TID 0000.0001) > ygOrigin=-80.,
(PID.TID 0000.0001) > dySpacing=4.,
(PID.TID 0000.0001) > dxSpacing=4.,
(PID.TID 0000.0001) > /
(PID.TID 0000.0001) >
(PID.TID 0000.0001) ># Input datasets
(PID.TID 0000.0001) > &PARM05
(PID.TID 0000.0001) > bathyFile=      'bathymetry.bin',
(PID.TID 0000.0001) > hydrogThetaFile='lev_t.bin',
(PID.TID 0000.0001) > hydrogSaltFile= 'lev_s.bin',
(PID.TID 0000.0001) > zonalWindFile=  'trenberth_taux.bin',
(PID.TID 0000.0001) > meridWindFile=  'trenberth_tauy.bin',
(PID.TID 0000.0001) > thetaClimFile=  'lev_sst.bin',
(PID.TID 0000.0001) > saltClimFile=   'lev_sss.bin',
(PID.TID 0000.0001) > surfQFile=      'ncep_qnet.bin',
(PID.TID 0000.0001) > the_run_name=   'global_ocean.90x40x15',
(PID.TID 0000.0001) > EmPmRFile=      'ncep_emp.bin',
(PID.TID 0000.0001) > /
(PID.TID 0000.0001) 
(PID.TID 0000.0001)  INI_PARMS ; starts to read PARM01
(PID.TID 0000.0001)  INI_PARMS ; read PARM01 : OK
(PID.TID 0000.0001) S/R INI_PARMS: No request for barotropic solver
(PID.TID 0000.0001) S/R INI_PARMS: => Use implicitFreeSurface as default
(PID.TID 0000.0001)  INI_PARMS ; starts to read PARM02
(PID.TID 0000.0001)  INI_PARMS ; read PARM02 : OK
(PID.TID 0000.0001)  INI_PARMS ; starts to read PARM03
(PID.TID 0000.0001)  INI_PARMS ; read PARM03 : OK
(PID.TID 0000.0001)  INI_PARMS ; starts to read PARM04
(PID.TID 0000.0001)  INI_PARMS ; read PARM04 : OK
(PID.TID 0000.0001)  INI_PARMS ; starts to read PARM05
(PID.TID 0000.0001)  INI_PARMS ; read PARM05 : OK
(PID.TID 0000.0001)  INI_PARMS: finished reading file "data"
(PID.TID 0000.0001)  PACKAGES_BOOT: opening data.pkg
(PID.TID 0000.0001)  OPEN_COPY_DATA_FILE: opening file data.pkg
(PID.TID 0000.0001) // =======================================================
(PID.TID 0000.0001) // Parameter file "data.pkg"
(PID.TID 0000.0001) // =======================================================
(PID.TID 0000.0001) ># Packages (lines beginning "#" are comments)
(PID.TID 0000.0001) > &PACKAGES
(PID.TID 0000.0001) > useGMRedi=.TRUE.,
(PID.TID 0000.0001) > useDiagnostics=.TRUE.,
(PID.TID 0000.0001) > /
(PID.TID 0000.0001) 
(PID.TID 0000.0001)  PACKAGES_BOOT: finished reading data.pkg
(PID.TID 0000.0001)  PACKAGES_BOOT: On/Off package Summary
 --------  pkgs with a standard "usePKG" On/Off switch in "data.pkg":  --------
 pkg/gmredi               compiled   and   used ( useGMRedi                = T )
 pkg/diagnostics          compiled   and   used ( useDiagnostics           = T )
 -------- pkgs without standard "usePKG" On/Off switch in "data.pkg":  --------
 pkg/generic_advdiff      compiled   and   used ( useGAD                   = T )
 pkg/mom_common           compiled   and   used ( momStepping              = T )
 pkg/mom_vecinv           compiled but not used ( +vectorInvariantMomentum = F )
 pkg/mom_fluxform         compiled   and   used ( & not vectorInvariantMom = T )
 pkg/cd_code              compiled   and   used ( useCDscheme              = T )
 pkg/monitor              compiled   and   used ( monitorFreq > 0.         = T )
 pkg/debug                compiled but not used ( debugMode                = F )
 pkg/exch2                compiled   and   used
 pkg/rw                   compiled   and   used
 pkg/mdsio                compiled   and   used
(PID.TID 0000.0001)  PACKAGES_BOOT: End of package Summary
(PID.TID 0000.0001) 
(PID.TID 0000.0001)  GM_READPARMS: opening data.gmredi
(PID.TID 0000.0001)  OPEN_COPY_DATA_FILE: opening file data.gmredi
(PID.TID 0000.0001) // =======================================================
(PID.TID 0000.0001) // Parameter file "data.gmredi"
(PID.TID 0000.0001) // =======================================================
(PID.TID 0000.0001) ># GM+Redi package parameters:
(PID.TID 0000.0001) >
(PID.TID 0000.0001) ># GM_background_K:: G & Mc.W  diffusion coefficient
(PID.TID 0000.0001) ># GM_maxSlope    :: max slope of isopycnals
(PID.TID 0000.0001) ># GM_Scrit       :: transition for scaling diffusion coefficient
(PID.TID 0000.0001) ># GM_Sd          :: half width scaling for diffusion coefficient
(PID.TID 0000.0001) ># GM_taper_scheme:: slope clipping or one of the tapering schemes
(PID.TID 0000.0001) ># GM_Kmin_horiz  :: horizontal diffusion minimum value
(PID.TID 0000.0001) >
(PID.TID 0000.0001) >#-Option parameters (needs to "define" options in GMREDI_OPTIONS.h")
(PID.TID 0000.0001) ># GM_isopycK     :: isopycnal diffusion coefficient (default=GM_background_K)
(PID.TID 0000.0001) ># GM_AdvForm     :: turn on GM Advective form       (default=Skew flux form)
(PID.TID 0000.0001) >
(PID.TID 0000.0001) > &GM_PARM01
(PID.TID 0000.0001) >  GM_AdvForm         = .TRUE.,
(PID.TID 0000.0001) >  GM_AdvSeparate     = .FALSE.,
(PID.TID 0000.0001) >  GM_background_K    = 0.0,
(PID.TID 0000.0001) >  GM_isopycK         = 0.0,
(PID.TID 0000.0001) >  GM_taper_scheme    = 'gkw91',
(PID.TID 0000.0001) >  GM_maxSlope        = 1.E-2,
(PID.TID 0000.0001) >  GM_Kmin_horiz      = 50.,
(PID.TID 0000.0001) >  GM_Scrit           = 4.E-3,
(PID.TID 0000.0001) >  GM_Sd              = 1.E-3,
(PID.TID 0000.0001) >  GM_InMomAsStress   = .TRUE.,
(PID.TID 0000.0001) >  GM_useBatesK3d     = .TRUE.,
(PID.TID 0000.0001) >  GM_Bates_gamma       = 0.35,
(PID.TID 0000.0001) >  GM_Bates_b1          = 4.,
(PID.TID 0000.0001) >  GM_Bates_EadyMaxDepth= 1000.0,
(PID.TID 0000.0001) >  GM_Bates_EadyMinDepth= 50.0,
(PID.TID 0000.0001) >  GM_Bates_smallK      = 0.1E+3,
(PID.TID 0000.0001) >  GM_Bates_maxC        =-0.15,
(PID.TID 0000.0001) >  GM_Bates_maxK        = 2.0E+3,
(PID.TID 0000.0001) >  GM_Bates_Lambda      = 4.0,
(PID.TID 0000.0001) >  GM_Bates_use_constK  = .FALSE.,
(PID.TID 0000.0001) >  GM_Bates_ThickSheet  = .FALSE.,
(PID.TID 0000.0001) >  GM_Bates_smooth      = .TRUE.,
(PID.TID 0000.0001) >  GM_Bates_constK      = 1000.0,
(PID.TID 0000.0001) >  GM_Bates_Rmax        = 75.0E+03,
(PID.TID 0000.0001) >  GM_Bates_Rmin        = 30.0E+03,
(PID.TID 0000.0001) >  GM_Bates_minCori     = 1.52E-5,
(PID.TID 0000.0001) >  GM_Bates_minN2       = 1.0E-7,
(PID.TID 0000.0001) >  GM_Bates_surfMinDepth= 0.0,
(PID.TID 0000.0001) >  GM_Bates_vecFreq     = 2592000.,
(PID.TID 0000.0001) >  GM_Bates_surfK       = .TRUE.,
(PID.TID 0000.0001) >  GM_Bates_constRedi   = .FALSE.,
(PID.TID 0000.0001) > /
(PID.TID 0000.0001) >
(PID.TID 0000.0001) 
(PID.TID 0000.0001)  GM_READPARMS: finished reading data.gmredi
(PID.TID 0000.0001)  DIAGNOSTICS_READPARMS: opening data.diagnostics
(PID.TID 0000.0001)  OPEN_COPY_DATA_FILE: opening file data.diagnostics
(PID.TID 0000.0001) // =======================================================
(PID.TID 0000.0001) // Parameter file "data.diagnostics"
(PID.TID 0000.0001) // =======================================================
(PID.TID 0000.0001) ># Diagnostic Package Choices
(PID.TID 0000.0001) >#--------------------
(PID.TID 0000.0001) >#  dumpAtLast (logical): always write output at the end of simulation (default=F)
(PID.TID 0000.0001) >#  diag_mnc   (logical): write to NetCDF files (default=useMNC)
(PID.TID 0000.0001) >#--for each output-stream:
(PID.TID 0000.0001) >#  fileName(n) : prefix of the output file name (max 80c long) for outp.stream n
(PID.TID 0000.0001) >#  frequency(n):< 0 : write snap-shot output every |frequency| seconds
(PID.TID 0000.0001) >#               > 0 : write time-average output every frequency seconds
(PID.TID 0000.0001) >#  timePhase(n)     : write at time = timePhase + multiple of |frequency|
(PID.TID 0000.0001) >#    averagingFreq  : frequency (in s) for periodic averaging interval
(PID.TID 0000.0001) >#    averagingPhase : phase     (in s) for periodic averaging interval
(PID.TID 0000.0001) >#    repeatCycle    : number of averaging intervals in 1 cycle
(PID.TID 0000.0001) >#  levels(:,n) : list of levels to write to file (Notes: declared as REAL)
(PID.TID 0000.0001) >#                when this entry is missing, select all common levels of this list
(PID.TID 0000.0001) >#  fields(:,n) : list of selected diagnostics fields (8.c) in outp.stream n
(PID.TID 0000.0001) >#                (see "available_diagnostics.log" file for the full list of diags)
(PID.TID 0000.0001) >#  missing_value(n) : missing value for real-type fields in output file "n"
(PID.TID 0000.0001) >#  fileFlags(n)     : specific code (8c string) for output file "n"
(PID.TID 0000.0001) >#--------------------
(PID.TID 0000.0001) > &DIAGNOSTICS_LIST
(PID.TID 0000.0001) ># diag_mnc     = .FALSE.,
(PID.TID 0000.0001) >#--
(PID.TID 0000.0001) >  fields(1:5,1)  = 'ETAN    ','ETANSQ  ','DETADT2 ',
(PID.TID 0000.0001) >                   'PHIBOT  ','PHIBOTSQ',
(PID.TID 0000.0001) >#                  'DSLPuFlw','DSLPvFlw',
(PID.TID 0000.0001) >   fileName(1) = 'surfDiag',
(PID.TID 0000.0001) ># frequency(1) = 311040000.,
(PID.TID 0000.0001) >  frequency(1) = 864000.,
(PID.TID 0000.0001) >
(PID.TID 0000.0001) >  fields(1:6,2)  = 'UVELMASS','VVELMASS','WVEL    ',
(PID.TID 0000.0001) >#                  'UVEL    ','VVEL    ','PHIHYD  ',
(PID.TID 0000.0001) >                   'THETA   ','SALT    ','WVELSQ  ',
(PID.TID 0000.0001) ># do not specify levels => all levels are selected
(PID.TID 0000.0001) >   fileName(2) = 'dynDiag',
(PID.TID 0000.0001) ># frequency(2) = 311040000.,
(PID.TID 0000.0001) >  frequency(2) = 864000.,
(PID.TID 0000.0001) >
(PID.TID 0000.0001) >  fields(1:6,3)  = 'RHOAnoma','DRHODR  ','CONVADJ ',
(PID.TID 0000.0001) >#                  'GM_PsiX ','GM_PsiY ',
(PID.TID 0000.0001) >                   'GM_Kwx  ','GM_Kwy  ','GM_Kwz  ',
(PID.TID 0000.0001) >#                  'GM_Kux  ','GM_Kvy  ',
(PID.TID 0000.0001) >#                  'GM_Kuz  ','GM_Kvz  ',
(PID.TID 0000.0001) >#                  'DSLP_TH ','DSLP_SLT',
(PID.TID 0000.0001) >   fileName(3) = 'oceDiag',
(PID.TID 0000.0001) ># frequency(3) = 311040000.,
(PID.TID 0000.0001) >  frequency(3) = 864000.,
(PID.TID 0000.0001) > /
(PID.TID 0000.0001) >
(PID.TID 0000.0001) >#--------------------
(PID.TID 0000.0001) ># Parameter for Diagnostics of per level statistics:
(PID.TID 0000.0001) >#--------------------
(PID.TID 0000.0001) >#  diagSt_mnc (logical): write stat-diags to NetCDF files (default=diag_mnc)
(PID.TID 0000.0001) >#  diagSt_regMaskFile : file containing the region-mask to read-in
(PID.TID 0000.0001) >#  nSetRegMskFile   : number of region-mask sets within the region-mask file
(PID.TID 0000.0001) >#  set_regMask(i)   : region-mask set-index that identifies the region "i"
(PID.TID 0000.0001) >#  val_regMask(i)   : region "i" identifier value in the region mask
(PID.TID 0000.0001) >#--for each output-stream:
(PID.TID 0000.0001) >#  stat_fName(n) : prefix of the output file name (max 80c long) for outp.stream n
(PID.TID 0000.0001) >#  stat_freq(n):< 0 : write snap-shot output every |stat_freq| seconds
(PID.TID 0000.0001) >#               > 0 : write time-average output every stat_freq seconds
(PID.TID 0000.0001) >#  stat_phase(n)    : write at time = stat_phase + multiple of |stat_freq|
(PID.TID 0000.0001) >#  stat_region(:,n) : list of "regions" (default: 1 region only=global)
(PID.TID 0000.0001) >#  stat_fields(:,n) : list of selected diagnostics fields (8.c) in outp.stream n
(PID.TID 0000.0001) >#                (see "available_diagnostics.log" file for the full list of diags)
(PID.TID 0000.0001) >#--------------------
(PID.TID 0000.0001) > &DIAG_STATIS_PARMS
(PID.TID 0000.0001) >#diagSt_mnc = .FALSE.,
(PID.TID 0000.0001) >#--
(PID.TID 0000.0001) > stat_fields(1:9,1) = 'ETAN    ','ETANSQ  ','DETADT2 ',
(PID.TID 0000.0001) >                      'UVEL    ','VVEL    ','WVEL    ',
(PID.TID 0000.0001) >                      'THETA   ','SALT    ','WVELSQ  ',
(PID.TID 0000.0001) >  stat_fName(1) = 'dynStDiag',
(PID.TID 0000.0001) >   stat_freq(1) = 2592000.,
(PID.TID 0000.0001) >#  stat_freq(1) = 432000.,
(PID.TID 0000.0001) ># stat_phase(1) = 86400.,
(PID.TID 0000.0001) > stat_fields(1:3,2) = 'RHOAnoma','DRHODR  ','CONVADJ ',
(PID.TID 0000.0001) >#                     'DSLPuFlw','DSLPvFlw',
(PID.TID 0000.0001) >#                     'DSLP_TH ','DSLP_SLT',
(PID.TID 0000.0001) >#                     'DSLPTr01','Add2EmP ',
(PID.TID 0000.0001) >  stat_fName(2) = 'oceStDiag',
(PID.TID 0000.0001) >   stat_freq(2) = 2592000.,
(PID.TID 0000.0001) >#  stat_freq(2) = 432000.,
(PID.TID 0000.0001) > /
(PID.TID 0000.0001) >
(PID.TID 0000.0001) 
(PID.TID 0000.0001) S/R DIAGNOSTICS_READPARMS, read namelist "diagnostics_list": start
(PID.TID 0000.0001) S/R DIAGNOSTICS_READPARMS, read namelist "diagnostics_list": OK
(PID.TID 0000.0001) S/R DIAGNOSTICS_READPARMS, read namelist "DIAG_STATIS_PARMS": start
(PID.TID 0000.0001) S/R DIAGNOSTICS_READPARMS, read namelist "DIAG_STATIS_PARMS": OK
(PID.TID 0000.0001)  DIAGNOSTICS_READPARMS: global parameter summary:
(PID.TID 0000.0001)  dumpAtLast = /* always write time-ave diags at the end */
(PID.TID 0000.0001)                   F
(PID.TID 0000.0001)     ;
(PID.TID 0000.0001)  diag_mnc =   /* write NetCDF output files */
(PID.TID 0000.0001)                   F
(PID.TID 0000.0001)     ;
(PID.TID 0000.0001)  useMissingValue = /* put MissingValue where mask = 0 */
(PID.TID 0000.0001)                   F
(PID.TID 0000.0001)     ;
(PID.TID 0000.0001)  diagCG_maxIters = /* max number of iters in diag_cg2d */
(PID.TID 0000.0001)                     500
(PID.TID 0000.0001)     ;
(PID.TID 0000.0001)  diagCG_resTarget = /* residual target for diag_cg2d */
(PID.TID 0000.0001)                 1.000000000000000E-13
(PID.TID 0000.0001)     ;
(PID.TID 0000.0001)  diagCG_pcOffDFac = /* preconditioner off-diagonal factor */
(PID.TID 0000.0001)                 9.611687812379854E-01
(PID.TID 0000.0001)     ;
(PID.TID 0000.0001) -----------------------------------------------------
(PID.TID 0000.0001)  DIAGNOSTICS_READPARMS: active diagnostics summary:
(PID.TID 0000.0001) -----------------------------------------------------
(PID.TID 0000.0001) Creating Output Stream: surfDiag
(PID.TID 0000.0001) Output Frequency:     864000.000000 ; Phase:           0.000000
(PID.TID 0000.0001)  Averaging Freq.:     864000.000000 , Phase:           0.000000 , Cycle:   1
(PID.TID 0000.0001)  missing value: -9.990000000000E+02
(PID.TID 0000.0001)  Levels:    will be set later
(PID.TID 0000.0001)  Fields:    ETAN     ETANSQ   DETADT2  PHIBOT   PHIBOTSQ
(PID.TID 0000.0001) Creating Output Stream: dynDiag
(PID.TID 0000.0001) Output Frequency:     864000.000000 ; Phase:           0.000000
(PID.TID 0000.0001)  Averaging Freq.:     864000.000000 , Phase:           0.000000 , Cycle:   1
(PID.TID 0000.0001)  missing value: -9.990000000000E+02
(PID.TID 0000.0001)  Levels:    will be set later
(PID.TID 0000.0001)  Fields:    UVELMASS VVELMASS WVEL     THETA    SALT     WVELSQ
(PID.TID 0000.0001) Creating Output Stream: oceDiag
(PID.TID 0000.0001) Output Frequency:     864000.000000 ; Phase:           0.000000
(PID.TID 0000.0001)  Averaging Freq.:     864000.000000 , Phase:           0.000000 , Cycle:   1
(PID.TID 0000.0001)  missing value: -9.990000000000E+02
(PID.TID 0000.0001)  Levels:    will be set later
(PID.TID 0000.0001)  Fields:    RHOAnoma DRHODR   CONVADJ  GM_Kwx   GM_Kwy   GM_Kwz
(PID.TID 0000.0001) -----------------------------------------------------
(PID.TID 0000.0001)  DIAGNOSTICS_READPARMS: statistics diags. summary:
(PID.TID 0000.0001) Creating Stats. Output Stream: dynStDiag
(PID.TID 0000.0001) Output Frequency:    2592000.000000 ; Phase:           0.000000
(PID.TID 0000.0001)  Regions:   0
(PID.TID 0000.0001)  Fields:    ETAN     ETANSQ   DETADT2  UVEL     VVEL     WVEL     THETA    SALT     WVELSQ
(PID.TID 0000.0001) Creating Stats. Output Stream: oceStDiag
(PID.TID 0000.0001) Output Frequency:    2592000.000000 ; Phase:           0.000000
(PID.TID 0000.0001)  Regions:   0
(PID.TID 0000.0001)  Fields:    RHOAnoma DRHODR   CONVADJ
(PID.TID 0000.0001) -----------------------------------------------------
(PID.TID 0000.0001) 
(PID.TID 0000.0001) SET_PARMS: done
(PID.TID 0000.0001) Enter INI_VERTICAL_GRID: setInterFDr=    T ; setCenterDr=    F
(PID.TID 0000.0001) %MON XC_max                       =   3.5800000000000E+02
(PID.TID 0000.0001) %MON XC_min                       =   2.0000000000000E+00
(PID.TID 0000.0001) %MON XC_mean                      =   1.8000000000000E+02
(PID.TID 0000.0001) %MON XC_sd                        =   1.0391663325314E+02
(PID.TID 0000.0001) %MON XG_max                       =   3.5600000000000E+02
(PID.TID 0000.0001) %MON XG_min                       =   0.0000000000000E+00
(PID.TID 0000.0001) %MON XG_mean                      =   1.7800000000000E+02
(PID.TID 0000.0001) %MON XG_sd                        =   1.0391663325314E+02
(PID.TID 0000.0001) %MON DXC_max                      =   4.4443898815675E+05
(PID.TID 0000.0001) %MON DXC_min                      =   9.2460385861875E+04
(PID.TID 0000.0001) %MON DXC_mean                     =   3.1372497618153E+05
(PID.TID 0000.0001) %MON DXC_sd                       =   1.1216447457560E+05
(PID.TID 0000.0001) %MON DXF_max                      =   4.4443898815675E+05
(PID.TID 0000.0001) %MON DXF_min                      =   9.2460385861875E+04
(PID.TID 0000.0001) %MON DXF_mean                     =   3.1372497618153E+05
(PID.TID 0000.0001) %MON DXF_sd                       =   1.1216447457560E+05
(PID.TID 0000.0001) %MON DXG_max                      =   4.4470989340816E+05
(PID.TID 0000.0001) %MON DXG_min                      =   7.7223062580781E+04
(PID.TID 0000.0001) %MON DXG_mean                     =   3.1353386340261E+05
(PID.TID 0000.0001) %MON DXG_sd                       =   1.1256651772502E+05
(PID.TID 0000.0001) %MON DXV_max                      =   4.4470989340816E+05
(PID.TID 0000.0001) %MON DXV_min                      =   7.7223062580781E+04
(PID.TID 0000.0001) %MON DXV_mean                     =   3.1353386340261E+05
(PID.TID 0000.0001) %MON DXV_sd                       =   1.1256651772502E+05
(PID.TID 0000.0001) %MON YC_max                       =   7.8000000000000E+01
(PID.TID 0000.0001) %MON YC_min                       =  -7.8000000000000E+01
(PID.TID 0000.0001) %MON YC_mean                      =   0.0000000000000E+00
(PID.TID 0000.0001) %MON YC_sd                        =   4.6173585522461E+01
(PID.TID 0000.0001) %MON YG_max                       =   7.6000000000000E+01
(PID.TID 0000.0001) %MON YG_min                       =  -8.0000000000000E+01
(PID.TID 0000.0001) %MON YG_mean                      =  -2.0000000000000E+00
(PID.TID 0000.0001) %MON YG_sd                        =   4.6173585522461E+01
(PID.TID 0000.0001) %MON DYC_max                      =   4.4470989340816E+05
(PID.TID 0000.0001) %MON DYC_min                      =   4.4470989340816E+05
(PID.TID 0000.0001) %MON DYC_mean                     =   4.4470989340816E+05
(PID.TID 0000.0001) %MON DYC_sd                       =   9.3132257461548E-10
(PID.TID 0000.0001) %MON DYF_max                      =   4.4470989340816E+05
(PID.TID 0000.0001) %MON DYF_min                      =   4.4470989340816E+05
(PID.TID 0000.0001) %MON DYF_mean                     =   4.4470989340816E+05
(PID.TID 0000.0001) %MON DYF_sd                       =   9.3132257461548E-10
(PID.TID 0000.0001) %MON DYG_max                      =   4.4470989340816E+05
(PID.TID 0000.0001) %MON DYG_min                      =   4.4470989340816E+05
(PID.TID 0000.0001) %MON DYG_mean                     =   4.4470989340816E+05
(PID.TID 0000.0001) %MON DYG_sd                       =   9.3132257461548E-10
(PID.TID 0000.0001) %MON DYU_max                      =   4.4470989340816E+05
(PID.TID 0000.0001) %MON DYU_min                      =   4.4470989340816E+05
(PID.TID 0000.0001) %MON DYU_mean                     =   4.4470989340816E+05
(PID.TID 0000.0001) %MON DYU_sd                       =   9.3132257461548E-10
(PID.TID 0000.0001) %MON RA_max                       =   1.9760627980089E+11
(PID.TID 0000.0001) %MON RA_min                       =   4.1109698667290E+10
(PID.TID 0000.0001) %MON RA_mean                      =   1.3948826965196E+11
(PID.TID 0000.0001) %MON RA_sd                        =   4.9870522472902E+10
(PID.TID 0000.0001) %MON RAW_max                      =   1.9760627980089E+11
(PID.TID 0000.0001) %MON RAW_min                      =   4.1109698667290E+10
(PID.TID 0000.0001) %MON RAW_mean                     =   1.3948826965196E+11
(PID.TID 0000.0001) %MON RAW_sd                       =   4.9870522472902E+10
(PID.TID 0000.0001) %MON RAS_max                      =   1.9772672958215E+11
(PID.TID 0000.0001) %MON RAS_min                      =   3.4334886267983E+10
(PID.TID 0000.0001) %MON RAS_mean                     =   1.3940329716694E+11
(PID.TID 0000.0001) %MON RAS_sd                       =   5.0049278732353E+10
(PID.TID 0000.0001) %MON RAZ_max                      =   1.9772672958215E+11
(PID.TID 0000.0001) %MON RAZ_min                      =   3.4334886267983E+10
(PID.TID 0000.0001) %MON RAZ_mean                     =   1.3940329716694E+11
(PID.TID 0000.0001) %MON RAZ_sd                       =   5.0049278732353E+10
(PID.TID 0000.0001) %MON AngleCS_max                  =   1.0000000000000E+00
(PID.TID 0000.0001) %MON AngleCS_min                  =   1.0000000000000E+00
(PID.TID 0000.0001) %MON AngleCS_mean                 =   1.0000000000000E+00
(PID.TID 0000.0001) %MON AngleCS_sd                   =   0.0000000000000E+00
(PID.TID 0000.0001) %MON AngleSN_max                  =   0.0000000000000E+00
(PID.TID 0000.0001) %MON AngleSN_min                  =   0.0000000000000E+00
(PID.TID 0000.0001) %MON AngleSN_mean                 =   0.0000000000000E+00
(PID.TID 0000.0001) %MON AngleSN_sd                   =   0.0000000000000E+00
(PID.TID 0000.0001) 
(PID.TID 0000.0001) FIND_HYD_PRESS_1D: Start to iterate (MaxIter=  150 ) until P(rho(P))
(PID.TID 0000.0001) FIND_HYD_PRESS_1D:  converges ; critera (x  5) on Rho diff= 1.035000E-11
(PID.TID 0000.0001)  iter    1, RMS-diff=  3.067292373321E-02, Max-diff= -4.865992464306E-02
(PID.TID 0000.0001)  iter    2, RMS-diff=  3.008677774568E-04, Max-diff= -5.940271378222E-04
(PID.TID 0000.0001)  iter    3, RMS-diff=  2.137566369311E-06, Max-diff= -5.763074113929E-06
(PID.TID 0000.0001)  iter    4, RMS-diff=  1.105374630434E-08, Max-diff= -3.385775926290E-08
(PID.TID 0000.0001)  iter    5, RMS-diff=  4.540984940442E-11, Max-diff= -1.493845047662E-10
(PID.TID 0000.0001)  iter    6, RMS-diff=  2.033691978340E-13, Max-diff= -6.821210263297E-13
(PID.TID 0000.0001)  iter    7, RMS-diff=  0.000000000000E+00, Max-diff=  0.000000000000E+00
(PID.TID 0000.0001) FIND_HYD_PRESS_1D: converged after    7 iters (nUnderCrit=  2 )
(PID.TID 0000.0001)  MDS_READ_FIELD: opening global file: bathymetry.bin
(PID.TID 0000.0001) // =======================================================
(PID.TID 0000.0001) // Field Model R_low (ini_masks_etc)
(PID.TID 0000.0001) // CMIN =         -5.200000000000000E+03
(PID.TID 0000.0001) // CMAX =         -1.200000000000000E+02
(PID.TID 0000.0001) // CINT =          1.881481481481482E+02
(PID.TID 0000.0001) // SYMBOLS (CMIN->CMAX): -abcdefghijklmnopqrstuvwxyz+
(PID.TID 0000.0001) //                  0.0: .
(PID.TID 0000.0001) // RANGE I (Lo:Hi:Step):(    -2:    93:     1)
(PID.TID 0000.0001) // RANGE J (Lo:Hi:Step):(    43:    -2:    -1)
(PID.TID 0000.0001) // RANGE K (Lo:Hi:Step):(   1:   1:   1)
(PID.TID 0000.0001) // =======================================================
(PID.TID 0000.0001) K =   1
(PID.TID 0000.0001) //                I=7       I=11      I=21      I=25      I=29      I=39      I=43      I=53      I=57      I=61      I=71      I=75      I=79      I=89
(PID.TID 0000.0001) // |--J--|210123456|890123890|234567890|238901234|678901238|012345678|012389012|456789012|890123456|890123890|234567890|238901234|678901238|012345678|0123
(PID.TID 0000.0001) //     43 ................................................................................................................................................
(PID.TID 0000.0001) //     42 ...............................................................z.....zyxxmgfeeefgfeeefefgimnpwwwmnpwwwy..+zyy...zyy.....yyyyoiiiyyoiiihhz+......
(PID.TID 0000.0001) //     41 ................................................................................................................................................
(PID.TID 0000.0001) //     40 +qlloqz+.++++zzz+++zzz++++++....++......................................................................................................+++qlloq
(PID.TID 0000.0001) //     39 uslloorzzzzzzzzzzzzzzz+...++....++.............................................................................y.....yxxz..............+zvuslloo
(PID.TID 0000.0001) //     38 smqpporzzzzzz+++zzz+++.........................................................................................z.....zxxy+............zyyvsmqppo
(PID.TID 0000.0001) //     37 smmmuz......................................................................................................++....++...zy+...ytt...yttyy.+smmmuz
(PID.TID 0000.0001) //     36 yutt+.................................................................mm++................................+++++++++++++znmm.yoowm.yoowssvuyutt+.
(PID.TID 0000.0001) //     35 w++++...................................................+zzz..rrzz..rrmmkk+...+g+...+gghn.................+++...+++....+nmiijlsoiijlsoopuww++++.
(PID.TID 0000.0001) //     34 +.......................................................+vvy.ggqvy.ggqyxv+y.ccdfy.ccdffhim..............................+nihhikkihhikkihhm+.....
(PID.TID 0000.0001) //     33 w+.......................................................uuz---huz---h------aaab--aaabdefin+....n+.......................zqvddflqvddflifffw+....
(PID.TID 0000.0001) //     32 m+.......................................................+t----ht----h---------a-----acdfgnn....nn......................+++gdffk+gdffkofffm+....
(PID.TID 0000.0001) //     31 m........................................................-----ad----ad--------ab----abddegil....il....................qbaafccdhqfccdhqqgddm.....
(PID.TID 0000.0001) //     30 i.......................................................f----b-----b--b------------------abd....bd............zf....zfbb--fbcdosfbcdosjfddi.....
(PID.TID 0000.0001) //     29 i.....................................................tu----e-----e---fjg----------------abdf...bdf...........ea....eaac--abfmijabfmijaadgi.....
(PID.TID 0000.0001) //     28 z.............................................+x....+xfl-------------------------------bdedefi..defi.........qba...qbaa---aemfbbaemfbbaaejz.....
(PID.TID 0000.0001) //     33 w+.......................................................uuz---huz---h------aaab--aaabdefin+....n+.......................zqvddflqvddflifffw+....
(PID.TID 0000.0001) //     32 m+.......................................................+t----ht----h---------a-----acdfgnn....nn......................+++gdffk+gdffkofffm+....
(PID.TID 0000.0001) //     31 m........................................................-----ad----ad--------ab----abddegil....il....................qbaafccdhqfccdhqqgddm.....
(PID.TID 0000.0001) //     30 i.......................................................f----b-----b--b------------------abd....bd............zf....zfbb--fbcdosfbcdosjfddi.....
(PID.TID 0000.0001) //     29 i.....................................................tu----e-----e---fjg----------------abdf...bdf...........ea....eaac--abfmijabfmijaadgi.....
(PID.TID 0000.0001) //     28 z.............................................+x....+xfl-------------------------------bdedefi..defi.........qba...qbaa---aemfbbaemfbbaaejz.....
(PID.TID 0000.0001) //     27 .......................xx....................+wf...+wfgfpf--------------eallc---llc---bbbccefgi.cefgi...+++x.qb-+x.qb-----akfa--akfa---ah.......
(PID.TID 0000.0001) //     26 .......................xnn.................+vd--.+vd---dna------------a--aicfna-icfna---aabdfghkbdfghku.++xssuy-xssuy-----bgca--bgca---ci.......
(PID.TID 0000.0001) //     25 .......................iiik...ook...oo+...+ivd--+ivd---doaa-bc--a-bc--ilglf--aa-f--aa---aabcghhkbcghhkll...ssum+.ssum+xaaacjbaabcjbaabdjk.......
(PID.TID 0000.0001) //     24 ...............x.....xnheeft.kkkft.kkk+...uii.aauii.aagdm----aa----aa-----a-----a-------bbbcdefjbcdefjljjju.zummu.zummwwbbchba--chba--abi.......
(PID.TID 0000.0001) //     23 ...............x.....xgheefp.iikfp.iikw...uuw..fuuw..fihi----fed---fed-----eaaa--eaaa--bbbbcdfflbcdfflkjiiiq....iq....zykccefa--cefa--abd.......
(PID.TID 0000.0001) //     22 quss...........b.....bbelffslffkfslffkk...zz.wqkzz.wqkeeqoheccdfheccdfa-----egab--egabaabcdddeggdddegghliiiqq...iqq......xeeehheeeehheehccquss..
(PID.TID 0000.0001) //     21 cbbeir........nb....nbbcdjhqdddihqdddiiz.....wqf...wqfeelgghmedeghmedea-----bibb--bibbcddddddefgdddefghklnqoo...qoo........ieefl.ieeflhgcccbbeir
(PID.TID 0000.0001) //     20 cbbder.......ldc...ldcccdgkccccikccccidd......z.....z.vkkktqqhegtqqhegg----aaacd-aaacddddddddefgdddefghkiiijl...ijl.........nhfa..nhfa--gfcbbder
(PID.TID 0000.0001) //     19 hcdaaf.......kdd...kddosggpaaaibpaaaibbccx...+z+...+z+.....r+nle.r+nlec---agaaabagaaabcddccddeficddefikfgffff...fff...........d-....d---cjhcdaaf
(PID.TID 0000.0001) //     18 hd---d.......kgl...kglggvliaaaibiaaaibbcaaeaiv++eaiv++...qqzolheqzolhecccfdgkaabdgkaabcdfccdeeikcdeeikgfgffdd+..fdd+..........d-....d---djhd---d
(PID.TID 0000.0001) //     23 ...............x.....xgheefp.iikfp.iikw...uuw..fuuw..fihi----fed---fed-----eaaa--eaaa--bbbbcdfflbcdfflkjiiiq....iq....zykccefa--cefa--abd.......
(PID.TID 0000.0001) //     22 quss...........b.....bbelffslffkfslffkk...zz.wqkzz.wqkeeqoheccdfheccdfa-----egab--egabaabcdddeggdddegghliiiqq...iqq......xeeehheeeehheehccquss..
(PID.TID 0000.0001) //     21 cbbeir........nb....nbbcdjhqdddihqdddiiz.....wqf...wqfeelgghmedeghmedea-----bibb--bibbcddddddefgdddefghklnqoo...qoo........ieefl.ieeflhgcccbbeir
(PID.TID 0000.0001) //     20 cbbder.......ldc...ldcccdgkccccikccccidd......z.....z.vkkktqqhegtqqhegg----aaacd-aaacddddddddefgdddefghkiiijl...ijl.........nhfa..nhfa--gfcbbder
(PID.TID 0000.0001) //     19 hcdaaf.......kdd...kddosggpaaaibpaaaibbccx...+z+...+z+.....r+nle.r+nlec---agaaabagaaabcddccddeficddefikfgffff...fff...........d-....d---cjhcdaaf
(PID.TID 0000.0001) //     18 hd---d.......kgl...kglggvliaaaibiaaaibbcaaeaiv++eaiv++...qqzolheqzolhecccfdgkaabdgkaabcdfccdeeikcdeeikgfgffdd+..fdd+..........d-....d---djhd---d
(PID.TID 0000.0001) //     17 hc---c.......l.f...l.feewlfaaaoafaaaoaa----aiv..-aiv.....qqnllslqnllslmlofcdbaaccdbaacceffffhhliffhhligfigeddj..eddj.........hd-...hd---ckhc---c
(PID.TID 0000.0001) //     16 gba--c......tn.d..tn.ddgnlfdaaqafdaaqa-----lv...-lv.......vnllvlvnllvllnwv--acci--accivomfffhilhffhilhgfffeddjf.eddjf........re-...re--aeigba--c
(PID.TID 0000.0001) //     15 fb--dpz....+ll.c.+ll.ccdfhmdddlcmdddlc----av....av.........otsxo.otsxoomv---abcc--abccddfihgijkhhgijkhgfffeejfffeejfff......+fd-..+fd---ckfb--dp
(PID.TID 0000.0001) //     14 fc--mcl....weeqb.weeqbaafilkfendlkfend--eagy....gy.........hhsto.hhstofft----aac---aacdheefijkmjfijkmjhhjijiffffjiffff.....zlfda.zlfdaaadlfc--mc
(PID.TID 0000.0001) //     13 hcclbbg....nccob.nccobaaiddgkffqdgkffqrqeaal....al.........eeutq.eeutqfft------a-----aaceeffhijlffhijlkjhhigfffqigfffq....+jgfod+jgfodccflhcclbb
(PID.TID 0000.0001) //     12 hhgaaacw+iiiccleiicclemhdddfliigdfliigfdcaabfaaaabfaaaz....ccsur.ccsurqpc--------------abcifffikifffikiiihhggff.hggff.....kbbbdfkbbbdfffglhhgaaa
(PID.TID 0000.0001) //     11 kgcaaacbbifccennfccennhbbdefnihgefnihgfdccaaaa--aaaa----..dcccntdcccnt.ncab-----b-------aabcdfilbcdfilhggjiggff.iggff....l---abc---abcefjlkgcaaa
(PID.TID 0000.0001) //     10 kfcaaccbdaacfrllacfrllfbbdegkmmlegkmmljhfdddba--ddba----d.dcccfxdcccfx.nyrebaba-ebaba----abcdgilbcdgilhfeegijgi.gijgi..+w--aa-ab-aa-abcfilkfcaac
(PID.TID 0000.0001) //      9 lffcdcccaaaoqsolaoqsolfdeehikihhhikihhlllgfedcccfedcccccdmdcccf.dcccf.vyfaaaaaaaaaaaaaa--abdehmjbdehmjhfeeefglv.efglv.++w-----ab----abcdfklffcdc
(PID.TID 0000.0001) //      8 liffjklcaafddffefddffeeccvznkfffznkfffhhhlkjifgjkjifgjkkfeeddfsyeddfsyvcaaaaaaccaaaaccdcccdfgjlidfgjligedbbceg+.bceg+.++xffn--cffn--cfddefliffjk
(PID.TID 0000.0001) //     13 hcclbbg....nccob.nccobaaiddgkffqdgkffqrqeaal....al.........eeutq.eeutqfft------a-----aaceeffhijlffhijlkjhhigfffqigfffq....+jgfod+jgfodccflhcclbb
(PID.TID 0000.0001) //     12 hhgaaacw+iiiccleiicclemhdddfliigdfliigfdcaabfaaaabfaaaz....ccsur.ccsurqpc--------------abcifffikifffikiiihhggff.hggff.....kbbbdfkbbbdfffglhhgaaa
(PID.TID 0000.0001) //     11 kgcaaacbbifccennfccennhbbdefnihgefnihgfdccaaaa--aaaa----..dcccntdcccnt.ncab-----b-------aabcdfilbcdfilhggjiggff.iggff....l---abc---abcefjlkgcaaa
(PID.TID 0000.0001) //     10 kfcaaccbdaacfrllacfrllfbbdegkmmlegkmmljhfdddba--ddba----d.dcccfxdcccfx.nyrebaba-ebaba----abcdgilbcdgilhfeegijgi.gijgi..+w--aa-ab-aa-abcfilkfcaac
(PID.TID 0000.0001) //      9 lffcdcccaaaoqsolaoqsolfdeehikihhhikihhlllgfedcccfedcccccdmdcccf.dcccf.vyfaaaaaaaaaaaaaa--abdehmjbdehmjhfeeefglv.efglv.++w-----ab----abcdfklffcdc
(PID.TID 0000.0001) //      8 liffjklcaafddffefddffeeccvznkfffznkfffhhhlkjifgjkjifgjkkfeeddfsyeddfsyvcaaaaaaccaaaaccdcccdfgjlidfgjligedbbceg+.bceg+.++xffn--cffn--cfddefliffjk
(PID.TID 0000.0001) //      7 hmqnnbbkkf--bmba--bmbaabbgtykfddtykfddeffeeddccdeddccdfhlffeelfbfeelfbaaaaaacddeaacddeghgjgjlliggjlligeddaaabedfaabedfiiiiiisvkfiisvkfkecchmqnnb
(PID.TID 0000.0001) //      6 cca-------------------aabcelttddelttdddedddddcccdddccccdfkkiiffbkiiffbaaaabcdgimbcdgimmkmefecaaafecaaabbbaaabbdfaabbdfiiiiispmmrispmmregifcca---
(PID.TID 0000.0001) //      5 --------a-------------aaccehhhidehhhiddeddddddccddddcccdfiikomodikomodddefffmlmiffmlmigedccaaaaacaaaaaaaababbbdfabbbdfiijsqgecccqgeccccbaa------
(PID.TID 0000.0001) //      4 --ahebaabbbbbeihbbbeihffgijiiiijjiiiijpywnnpokkonpokkomkiiijmmmoijmmmolkommmgffemmgffeeedccaaaaacaaaaaabbcccefhmccefhmz..yjgecccjgeccccbaa--aheb
(PID.TID 0000.0001) //      3 gffhhrpjiiwyy...wyy........................................yxotm.yxotmjjjjgfeeeegfeeeeeeddeffffheffffheddeghjkyyghjkyy..yqjgeddcjgeddccdbbgffhhr
(PID.TID 0000.0001) //      2 ...............................................................z.....zyxxmgfeeefgfeeefefgimnpwwwmnpwwwy..+zyy...zyy.....yyyyoiiiyyoiiihhz+......
(PID.TID 0000.0001) //      1 ................................................................................................................................................
(PID.TID 0000.0001) //      0 +qlloqz+.++++zzz+++zzz++++++....++......................................................................................................+++qlloq
(PID.TID 0000.0001) //     -1 uslloorzzzzzzzzzzzzzzz+...++....++.............................................................................y.....yxxz..............+zvuslloo
(PID.TID 0000.0001) //     -2 ................................................................................................................................................
(PID.TID 0000.0001) // =======================================================
(PID.TID 0000.0001) // END OF FIELD                                          =
(PID.TID 0000.0001) // =======================================================
(PID.TID 0000.0001) 
(PID.TID 0000.0001) // =======================================================
(PID.TID 0000.0001) // Field Model Ro_surf (ini_masks_etc)
(PID.TID 0000.0001) // CMIN =          1.000000000000000E+32
(PID.TID 0000.0001) // CMAX =         -1.000000000000000E+32
(PID.TID 0000.0001) // CINT =          0.000000000000000E+00
(PID.TID 0000.0001) // SYMBOLS (CMIN->CMAX): -abcdefghijklmnopqrstuvwxyz+
(PID.TID 0000.0001) //                  0.0: .
(PID.TID 0000.0001) // RANGE I (Lo:Hi:Step):(    -2:    93:     1)
(PID.TID 0000.0001) // RANGE J (Lo:Hi:Step):(    43:    -2:    -1)
(PID.TID 0000.0001) // RANGE K (Lo:Hi:Step):(   1:   1:   1)
(PID.TID 0000.0001) // =======================================================
(PID.TID 0000.0001) // =======================================================
(PID.TID 0000.0001) // END OF FIELD                                          =
(PID.TID 0000.0001) // =======================================================
(PID.TID 0000.0001) 
(PID.TID 0000.0001) // =======================================================
(PID.TID 0000.0001) // Field hFacC at iteration          0
(PID.TID 0000.0001) // CMIN =          1.000000000000000E+00
(PID.TID 0000.0001) // CMAX =          1.000000000000000E+00
(PID.TID 0000.0001) // CINT =          0.000000000000000E+00
(PID.TID 0000.0001) // SYMBOLS (CMIN->CMAX): -abcdefghijklmnopqrstuvwxyz+
(PID.TID 0000.0001) //                  0.0: .
(PID.TID 0000.0001) // RANGE I (Lo:Hi:Step):(    -2:    93:     1)
(PID.TID 0000.0001) // RANGE J (Lo:Hi:Step):(    43:    -2:    -1)
(PID.TID 0000.0001) // RANGE K (Lo:Hi:Step):(   1:   1:   1)
(PID.TID 0000.0001) // =======================================================
(PID.TID 0000.0001) // =======================================================
(PID.TID 0000.0001) // END OF FIELD                                          =
(PID.TID 0000.0001) // =======================================================
(PID.TID 0000.0001) 
(PID.TID 0000.0001) // =======================================================
(PID.TID 0000.0001) // Field hFacW at iteration          0
(PID.TID 0000.0001) // CMIN =          1.000000000000000E+00
(PID.TID 0000.0001) // CMAX =          1.000000000000000E+00
(PID.TID 0000.0001) // CINT =          0.000000000000000E+00
(PID.TID 0000.0001) // SYMBOLS (CMIN->CMAX): -abcdefghijklmnopqrstuvwxyz+
(PID.TID 0000.0001) //                  0.0: .
(PID.TID 0000.0001) // RANGE I (Lo:Hi:Step):(    -2:    93:     1)
(PID.TID 0000.0001) // RANGE J (Lo:Hi:Step):(    43:    -2:    -1)
(PID.TID 0000.0001) // RANGE K (Lo:Hi:Step):(   1:   1:   1)
(PID.TID 0000.0001) // =======================================================
(PID.TID 0000.0001) // =======================================================
(PID.TID 0000.0001) // END OF FIELD                                          =
(PID.TID 0000.0001) // =======================================================
(PID.TID 0000.0001) 
(PID.TID 0000.0001) // =======================================================
(PID.TID 0000.0001) // Field hFacS at iteration          0
(PID.TID 0000.0001) // CMIN =          1.000000000000000E+00
(PID.TID 0000.0001) // CMAX =          1.000000000000000E+00
(PID.TID 0000.0001) // CINT =          0.000000000000000E+00
(PID.TID 0000.0001) // SYMBOLS (CMIN->CMAX): -abcdefghijklmnopqrstuvwxyz+
(PID.TID 0000.0001) //                  0.0: .
(PID.TID 0000.0001) // RANGE I (Lo:Hi:Step):(    -2:    93:     1)
(PID.TID 0000.0001) // RANGE J (Lo:Hi:Step):(    43:    -2:    -1)
(PID.TID 0000.0001) // RANGE K (Lo:Hi:Step):(   1:   1:   1)
(PID.TID 0000.0001) // =======================================================
(PID.TID 0000.0001) // =======================================================
(PID.TID 0000.0001) // END OF FIELD                                          =
(PID.TID 0000.0001) // =======================================================
(PID.TID 0000.0001) 
(PID.TID 0000.0001) GAD_INIT_FIXED: GAD_OlMinSize=  1  0  1
(PID.TID 0000.0001) 
(PID.TID 0000.0001) // ===================================
(PID.TID 0000.0001) // GAD parameters :
(PID.TID 0000.0001) // ===================================
(PID.TID 0000.0001) tempAdvScheme =   /* Temp. Horiz.Advection scheme selector */
(PID.TID 0000.0001)                       2
(PID.TID 0000.0001)     ;
(PID.TID 0000.0001) tempVertAdvScheme =   /* Temp. Vert. Advection scheme selector */
(PID.TID 0000.0001)                       2
(PID.TID 0000.0001)     ;
(PID.TID 0000.0001) tempMultiDimAdvec =   /* use Muti-Dim Advec method for Temp */
(PID.TID 0000.0001)                   F
(PID.TID 0000.0001)     ;
(PID.TID 0000.0001) tempSOM_Advection = /* use 2nd Order Moment Advection for Temp */
(PID.TID 0000.0001)                   F
(PID.TID 0000.0001)     ;
(PID.TID 0000.0001) AdamsBashforthGt = /* apply Adams-Bashforth extrapolation on Gt */
(PID.TID 0000.0001)                   T
(PID.TID 0000.0001)     ;
(PID.TID 0000.0001) AdamsBashforth_T = /* apply Adams-Bashforth extrapolation on Temp */
(PID.TID 0000.0001)                   F
(PID.TID 0000.0001)     ;
(PID.TID 0000.0001) saltAdvScheme =   /* Salt. Horiz.advection scheme selector */
(PID.TID 0000.0001)                       2
(PID.TID 0000.0001)     ;
(PID.TID 0000.0001) saltVertAdvScheme =   /* Salt. Vert. Advection scheme selector */
(PID.TID 0000.0001)                       2
(PID.TID 0000.0001)     ;
(PID.TID 0000.0001) saltMultiDimAdvec =   /* use Muti-Dim Advec method for Salt */
(PID.TID 0000.0001)                   F
(PID.TID 0000.0001)     ;
(PID.TID 0000.0001) saltSOM_Advection = /* use 2nd Order Moment Advection for Salt */
(PID.TID 0000.0001)                   F
(PID.TID 0000.0001)     ;
(PID.TID 0000.0001) AdamsBashforthGs = /* apply Adams-Bashforth extrapolation on Gs */
(PID.TID 0000.0001)                   T
(PID.TID 0000.0001)     ;
(PID.TID 0000.0001) AdamsBashforth_S = /* apply Adams-Bashforth extrapolation on Salt */
(PID.TID 0000.0001)                   F
(PID.TID 0000.0001)     ;
(PID.TID 0000.0001) // ===================================
(PID.TID 0000.0001) ------------------------------------------------------------
(PID.TID 0000.0001) DIAGNOSTICS_SET_LEVELS: done
(PID.TID 0000.0001)  Total Nb of available Diagnostics: ndiagt=   258
(PID.TID 0000.0001)  write list of available Diagnostics to file: available_diagnostics.log
(PID.TID 0000.0001) SETDIAG: Allocate  1 x  1 Levels for Diagnostic #    23 ETAN
(PID.TID 0000.0001) SETDIAG: Allocate  1 x  1 Levels for Diagnostic #    24 ETANSQ
(PID.TID 0000.0001) SETDIAG: Allocate  1 x  1 Levels for Diagnostic #    25 DETADT2
(PID.TID 0000.0001) SETDIAG: Allocate  1 x  1 Levels for Diagnostic #    73 PHIBOT
(PID.TID 0000.0001) SETDIAG: Allocate  1 x  1 Levels for Diagnostic #    74 PHIBOTSQ
(PID.TID 0000.0001) SETDIAG: Allocate 15 x  1 Levels for Diagnostic #    45 UVELMASS
(PID.TID 0000.0001) SETDIAG: Allocate 15 x  1 Levels for Diagnostic #    46 VVELMASS
(PID.TID 0000.0001) SETDIAG: Allocate 15 x  1 Levels for Diagnostic #    32 WVEL
(PID.TID 0000.0001) SETDIAG: Allocate 15 x  1 Levels for Diagnostic #    26 THETA
(PID.TID 0000.0001) SETDIAG: Allocate 15 x  1 Levels for Diagnostic #    27 SALT
(PID.TID 0000.0001) SETDIAG: Allocate 15 x  1 Levels for Diagnostic #    38 WVELSQ
(PID.TID 0000.0001) SETDIAG: Allocate 15 x  1 Levels for Diagnostic #    64 RHOAnoma
(PID.TID 0000.0001) SETDIAG: Allocate 15 x  1 Levels for Diagnostic #    78 DRHODR
(PID.TID 0000.0001) SETDIAG: Allocate 15 x  1 Levels for Diagnostic #    79 CONVADJ
(PID.TID 0000.0001) SETDIAG: Allocate 15 x  1 Levels for Diagnostic #   209 GM_Kwx
(PID.TID 0000.0001) SETDIAG: Allocate 15 x  1 Levels for Diagnostic #   210 GM_Kwy
(PID.TID 0000.0001) SETDIAG: Allocate 15 x  1 Levels for Diagnostic #   211 GM_Kwz
(PID.TID 0000.0001)   space allocated for all diagnostics:     185 levels
(PID.TID 0000.0001)   set mate pointer for diag #    45  UVELMASS , Parms: UUr     MR , mate:    46
(PID.TID 0000.0001)   set mate pointer for diag #    46  VVELMASS , Parms: VVr     MR , mate:    45
(PID.TID 0000.0001)   set mate pointer for diag #   209  GM_Kwx   , Parms: UM      LR , mate:   210
(PID.TID 0000.0001)   set mate pointer for diag #   210  GM_Kwy   , Parms: VM      LR , mate:   209
(PID.TID 0000.0001) DIAGNOSTICS_SET_POINTERS: Set levels for Outp.Stream: surfDiag
(PID.TID 0000.0001)  Levels:       1.
(PID.TID 0000.0001) DIAGNOSTICS_SET_POINTERS: Set levels for Outp.Stream: dynDiag
(PID.TID 0000.0001)  Levels:       1.   2.   3.   4.   5.   6.   7.   8.   9.  10.  11.  12.  13.  14.  15.
(PID.TID 0000.0001) DIAGNOSTICS_SET_POINTERS: Set levels for Outp.Stream: oceDiag
(PID.TID 0000.0001)  Levels:       1.   2.   3.   4.   5.   6.   7.   8.   9.  10.  11.  12.  13.  14.  15.
(PID.TID 0000.0001) DIAGNOSTICS_SET_POINTERS: done
(PID.TID 0000.0001) ------------------------------------------------------------
(PID.TID 0000.0001) DIAGSTATS_SET_REGIONS: define no region
(PID.TID 0000.0001) ------------------------------------------------------------
(PID.TID 0000.0001) SETDIAG: Allocate  1 Levels for Stats-Diag #    23 ETAN
(PID.TID 0000.0001) SETDIAG: Allocate  1 Levels for Stats-Diag #    24 ETANSQ
(PID.TID 0000.0001) SETDIAG: Allocate  1 Levels for Stats-Diag #    25 DETADT2
(PID.TID 0000.0001) SETDIAG: Allocate 15 Levels for Stats-Diag #    30 UVEL
(PID.TID 0000.0001) SETDIAG: Allocate 15 Levels for Stats-Diag #    31 VVEL
(PID.TID 0000.0001) SETDIAG: Allocate 15 Levels for Stats-Diag #    32 WVEL
(PID.TID 0000.0001) SETDIAG: Allocate 15 Levels for Stats-Diag #    26 THETA
(PID.TID 0000.0001) SETDIAG: Allocate 15 Levels for Stats-Diag #    27 SALT
(PID.TID 0000.0001) SETDIAG: Allocate 15 Levels for Stats-Diag #    38 WVELSQ
(PID.TID 0000.0001) SETDIAG: Allocate 15 Levels for Stats-Diag #    64 RHOAnoma
(PID.TID 0000.0001) SETDIAG: Allocate 15 Levels for Stats-Diag #    78 DRHODR
(PID.TID 0000.0001) SETDIAG: Allocate 15 Levels for Stats-Diag #    79 CONVADJ
(PID.TID 0000.0001)   space allocated for all stats-diags:     138 levels
(PID.TID 0000.0001) DIAGSTATS_SET_POINTERS: done
(PID.TID 0000.0001) ------------------------------------------------------------
(PID.TID 0000.0001) DIAGSTATS_INI_IO: open file: dynStDiag.0000000000.txt , unit=     9
(PID.TID 0000.0001) DIAGSTATS_INI_IO: open file: oceStDiag.0000000000.txt , unit=    10
(PID.TID 0000.0001) Empty tile: #    30 (bi,bj=   3   4 )
(PID.TID 0000.0001) 
(PID.TID 0000.0001) %MON fCori_max                    =   1.4265546244797E-04
(PID.TID 0000.0001) %MON fCori_min                    =  -1.4265546244797E-04
(PID.TID 0000.0001) %MON fCori_mean                   =   2.8912057932947E-21
(PID.TID 0000.0001) %MON fCori_sd                     =   9.6599226301547E-05
(PID.TID 0000.0001) %MON fCoriG_max                   =   1.4151032568025E-04
(PID.TID 0000.0001) %MON fCoriG_min                   =  -1.4362679550910E-04
(PID.TID 0000.0001) %MON fCoriG_mean                  =  -3.5906698877273E-06
(PID.TID 0000.0001) %MON fCoriG_sd                    =   9.6548915696246E-05
(PID.TID 0000.0001) %MON fCoriCos_max                 =   1.4575362704741E-04
(PID.TID 0000.0001) %MON fCoriCos_min                 =   3.0322354601388E-05
(PID.TID 0000.0001) %MON fCoriCos_mean                =   1.0288600773633E-04
(PID.TID 0000.0001) %MON fCoriCos_sd                  =   3.6784304327266E-05
(PID.TID 0000.0001) INI_CG2D: CG2D normalisation factor =  6.5682677425711703E-05
(PID.TID 0000.0001) 
(PID.TID 0000.0001) // =======================================================
(PID.TID 0000.0001) // Model configuration
(PID.TID 0000.0001) // =======================================================
(PID.TID 0000.0001) //
(PID.TID 0000.0001) // "Physical" paramters ( PARM01 in namelist )
(PID.TID 0000.0001) //
(PID.TID 0000.0001) buoyancyRelation = /* Type of relation to get Buoyancy */
(PID.TID 0000.0001)               'OCEANIC'
(PID.TID 0000.0001)     ;
(PID.TID 0000.0001) fluidIsAir   =  /* fluid major constituent is Air */
(PID.TID 0000.0001)                   F
(PID.TID 0000.0001)     ;
(PID.TID 0000.0001) fluidIsWater =  /* fluid major constituent is Water */
(PID.TID 0000.0001)                   T
(PID.TID 0000.0001)     ;
(PID.TID 0000.0001) usingPCoords =  /* use p (or p*) vertical coordinate */
(PID.TID 0000.0001)                   F
(PID.TID 0000.0001)     ;
(PID.TID 0000.0001) usingZCoords =  /* use z (or z*) vertical coordinate */
(PID.TID 0000.0001)                   T
(PID.TID 0000.0001)     ;
(PID.TID 0000.0001) tRef =   /* Reference temperature profile ( oC or K ) */
(PID.TID 0000.0001)    15 @  2.000000000000000E+01              /* K =  1: 15 */
(PID.TID 0000.0001)     ;
(PID.TID 0000.0001) sRef =   /* Reference salinity profile ( g/kg ) */
(PID.TID 0000.0001)    15 @  3.500000000000000E+01              /* K =  1: 15 */
(PID.TID 0000.0001)     ;
(PID.TID 0000.0001) rhoRef =   /* Density vertical profile from (Ref,sRef)( kg/m^3 ) */
(PID.TID 0000.0001)                 1.024871553740665E+03,      /* K =  1 */
(PID.TID 0000.0001)                 1.025131853965179E+03,      /* K =  2 */
(PID.TID 0000.0001)                 1.025500122698715E+03,      /* K =  3 */
(PID.TID 0000.0001)                 1.026019055456198E+03,      /* K =  4 */
(PID.TID 0000.0001)                 1.026730727023644E+03,      /* K =  5 */
(PID.TID 0000.0001)                 1.027654834729768E+03,      /* K =  6 */
(PID.TID 0000.0001)                 1.028788857592232E+03,      /* K =  7 */
(PID.TID 0000.0001)                 1.030129714500301E+03,      /* K =  8 */
(PID.TID 0000.0001)                 1.031673780307277E+03,      /* K =  9 */
(PID.TID 0000.0001)                 1.033416904722807E+03,      /* K = 10 */
(PID.TID 0000.0001)                 1.035354433881450E+03,      /* K = 11 */
(PID.TID 0000.0001)                 1.037481234443614E+03,      /* K = 12 */
(PID.TID 0000.0001)                 1.039791720064872E+03,      /* K = 13 */
(PID.TID 0000.0001)                 1.042279880049878E+03,      /* K = 14 */
(PID.TID 0000.0001)                 1.044939309988095E+03       /* K = 15 */
(PID.TID 0000.0001)     ;
(PID.TID 0000.0001) dBdrRef = /* Vertical grad. of reference buoyancy [(m/s/r)^2] */
(PID.TID 0000.0001)    15 @  0.000000000000000E+00              /* K =  1: 15 */
(PID.TID 0000.0001)     ;
(PID.TID 0000.0001) useStrainTensionVisc= /* Use StrainTension Form of Viscous Operator */
(PID.TID 0000.0001)                   F
(PID.TID 0000.0001)     ;
(PID.TID 0000.0001) useVariableVisc = /* Use variable horizontal viscosity */
(PID.TID 0000.0001)                   F
(PID.TID 0000.0001)     ;
(PID.TID 0000.0001) useHarmonicVisc = /* Use harmonic horizontal viscosity */
(PID.TID 0000.0001)                   T
(PID.TID 0000.0001)     ;
(PID.TID 0000.0001) useBiharmonicVisc= /* Use biharmonic horiz.  viscosity */
(PID.TID 0000.0001)                   T
(PID.TID 0000.0001)     ;
(PID.TID 0000.0001) useSmag3D = /* Use isotropic 3-D Smagorinsky viscosity */
(PID.TID 0000.0001)                   F
(PID.TID 0000.0001)     ;
(PID.TID 0000.0001) viscAh  =   /* Lateral harmonic viscosity ( m^2/s ) */
(PID.TID 0000.0001)                 5.000000000000000E+05
(PID.TID 0000.0001)     ;
(PID.TID 0000.0001) viscA4  =   /* Lateral biharmonic viscosity ( m^4/s ) */
(PID.TID 0000.0001)                 1.000000000000000E+14
(PID.TID 0000.0001)     ;
(PID.TID 0000.0001) no_slip_sides =  /* Viscous BCs: No-slip sides */
(PID.TID 0000.0001)                   T
(PID.TID 0000.0001)     ;
(PID.TID 0000.0001) sideDragFactor = /* side-drag scaling factor (non-dim) */
(PID.TID 0000.0001)                 2.000000000000000E+00
(PID.TID 0000.0001)     ;
(PID.TID 0000.0001) viscArNr = /* vertical profile of vertical viscosity ( m^2/s )*/
(PID.TID 0000.0001)    15 @  1.000000000000000E-03              /* K =  1: 15 */
(PID.TID 0000.0001)     ;
(PID.TID 0000.0001) no_slip_bottom =  /* Viscous BCs: No-slip bottom */
(PID.TID 0000.0001)                   T
(PID.TID 0000.0001)     ;
(PID.TID 0000.0001) bottomVisc_pCell = /* Partial-cell in bottom Visc. BC */
(PID.TID 0000.0001)                   F
(PID.TID 0000.0001)     ;
(PID.TID 0000.0001) bottomDragLinear = /* linear bottom-drag coefficient ( m/s ) */
(PID.TID 0000.0001)                 0.000000000000000E+00
(PID.TID 0000.0001)     ;
(PID.TID 0000.0001) bottomDragQuadratic = /* quadratic bottom-drag coefficient (-) */
(PID.TID 0000.0001)                 0.000000000000000E+00
(PID.TID 0000.0001)     ;
(PID.TID 0000.0001) selectBotDragQuadr = /* select quadratic bottom drag options */
(PID.TID 0000.0001)                      -1
(PID.TID 0000.0001)     ;
(PID.TID 0000.0001) diffKhT =   /* Laplacian diffusion of heat laterally ( m^2/s ) */
(PID.TID 0000.0001)                 0.000000000000000E+00
(PID.TID 0000.0001)     ;
(PID.TID 0000.0001) diffK4T =   /* Biharmonic diffusion of heat laterally ( m^4/s ) */
(PID.TID 0000.0001)                 0.000000000000000E+00
(PID.TID 0000.0001)     ;
(PID.TID 0000.0001) diffKhS =   /* Laplacian diffusion of salt laterally ( m^2/s ) */
(PID.TID 0000.0001)                 0.000000000000000E+00
(PID.TID 0000.0001)     ;
(PID.TID 0000.0001) diffK4S =   /* Biharmonic diffusion of salt laterally ( m^4/s ) */
(PID.TID 0000.0001)                 0.000000000000000E+00
(PID.TID 0000.0001)     ;
(PID.TID 0000.0001) diffKrNrT = /* vertical profile of vertical diffusion of Temp ( m^2/s )*/
(PID.TID 0000.0001)    15 @  3.000000000000000E-05              /* K =  1: 15 */
(PID.TID 0000.0001)     ;
(PID.TID 0000.0001) diffKrNrS = /* vertical profile of vertical diffusion of Salt ( m^2/s )*/
(PID.TID 0000.0001)    15 @  3.000000000000000E-05              /* K =  1: 15 */
(PID.TID 0000.0001)     ;
(PID.TID 0000.0001) diffKrBL79surf = /* Surface diffusion for Bryan and Lewis 79 ( m^2/s ) */
(PID.TID 0000.0001)                 0.000000000000000E+00
(PID.TID 0000.0001)     ;
(PID.TID 0000.0001) diffKrBL79deep = /* Deep diffusion for Bryan and Lewis 1979 ( m^2/s ) */
(PID.TID 0000.0001)                 0.000000000000000E+00
(PID.TID 0000.0001)     ;
(PID.TID 0000.0001) diffKrBL79scl = /* Depth scale for Bryan and Lewis 1979 ( m ) */
(PID.TID 0000.0001)                 2.000000000000000E+02
(PID.TID 0000.0001)     ;
(PID.TID 0000.0001) diffKrBL79Ho = /* Turning depth for Bryan and Lewis 1979 ( m ) */
(PID.TID 0000.0001)                -2.000000000000000E+03
(PID.TID 0000.0001)     ;
(PID.TID 0000.0001) ivdc_kappa = /* Implicit Vertical Diffusivity for Convection ( m^2/s) */
(PID.TID 0000.0001)                 1.000000000000000E+01
(PID.TID 0000.0001)     ;
(PID.TID 0000.0001) hMixCriteria=  /* Criteria for mixed-layer diagnostic */
(PID.TID 0000.0001)                -8.000000000000000E-01
(PID.TID 0000.0001)     ;
(PID.TID 0000.0001) dRhoSmall =  /* Parameter for mixed-layer diagnostic */
(PID.TID 0000.0001)                 1.000000000000000E-06
(PID.TID 0000.0001)     ;
(PID.TID 0000.0001) hMixSmooth=  /* Smoothing parameter for mixed-layer diagnostic */
(PID.TID 0000.0001)                 0.000000000000000E+00
(PID.TID 0000.0001)     ;
(PID.TID 0000.0001) eosType =  /* Type of Equation of State */
(PID.TID 0000.0001)               'JMD95P'
(PID.TID 0000.0001)     ;
(PID.TID 0000.0001) eosRefP0 = /* Reference atmospheric pressure for EOS ( Pa ) */
(PID.TID 0000.0001)                 1.013250000000000E+05
(PID.TID 0000.0001)     ;
(PID.TID 0000.0001) selectP_inEOS_Zc = /* select pressure to use in EOS (0,1,2,3) */
(PID.TID 0000.0001)                       2
(PID.TID 0000.0001)     0= -g*rhoConst*z ; 1= pRef (from tRef,sRef); 2= Hyd P ; 3= Hyd+NH P
(PID.TID 0000.0001)     ;
(PID.TID 0000.0001) surf_pRef = /* Surface reference pressure ( Pa ) */
(PID.TID 0000.0001)                 1.013250000000000E+05
(PID.TID 0000.0001)     ;
(PID.TID 0000.0001) HeatCapacity_Cp =  /* Specific heat capacity ( J/kg/K ) */
(PID.TID 0000.0001)                 3.994000000000000E+03
(PID.TID 0000.0001)     ;
(PID.TID 0000.0001) celsius2K = /* 0 degree Celsius converted to Kelvin ( K ) */
(PID.TID 0000.0001)                 2.731500000000000E+02
(PID.TID 0000.0001)     ;
(PID.TID 0000.0001) rhoConst  = /* Reference density (Boussinesq)  ( kg/m^3 ) */
(PID.TID 0000.0001)                 1.035000000000000E+03
(PID.TID 0000.0001)     ;
(PID.TID 0000.0001) rhoFacC = /* normalized Reference density @ cell-Center (-) */
(PID.TID 0000.0001)    15 @  1.000000000000000E+00              /* K =  1: 15 */
(PID.TID 0000.0001)     ;
(PID.TID 0000.0001) rhoFacF = /* normalized Reference density @ W-Interface (-) */
(PID.TID 0000.0001)    16 @  1.000000000000000E+00              /* K =  1: 16 */
(PID.TID 0000.0001)     ;
(PID.TID 0000.0001) rhoConstFresh = /* Fresh-water reference density ( kg/m^3 ) */
(PID.TID 0000.0001)                 1.000000000000000E+03
(PID.TID 0000.0001)     ;
(PID.TID 0000.0001) gravity =   /* Gravitational acceleration ( m/s^2 ) */
(PID.TID 0000.0001)                 9.810000000000000E+00
(PID.TID 0000.0001)     ;
(PID.TID 0000.0001) gBaro =   /* Barotropic gravity ( m/s^2 ) */
(PID.TID 0000.0001)                 9.810000000000000E+00
(PID.TID 0000.0001)     ;
(PID.TID 0000.0001) gravFacC = /* gravity factor (vs surf.) @ cell-Center (-) */
(PID.TID 0000.0001)    15 @  1.000000000000000E+00              /* K =  1: 15 */
(PID.TID 0000.0001)     ;
(PID.TID 0000.0001) gravFacF = /* gravity factor (vs surf.) @ W-Interface (-) */
(PID.TID 0000.0001)    16 @  1.000000000000000E+00              /* K =  1: 16 */
(PID.TID 0000.0001)     ;
(PID.TID 0000.0001) rotationPeriod =   /* Rotation Period ( s ) */
(PID.TID 0000.0001)                 8.616400000000000E+04
(PID.TID 0000.0001)     ;
(PID.TID 0000.0001) omega =   /* Angular velocity ( rad/s ) */
(PID.TID 0000.0001)                 7.292123516990375E-05
(PID.TID 0000.0001)     ;
(PID.TID 0000.0001) f0 =   /* Reference coriolis parameter ( 1/s ) */
(PID.TID 0000.0001)                 1.000000000000000E-04
(PID.TID 0000.0001)     ;
(PID.TID 0000.0001) beta =   /* Beta ( 1/(m.s) ) */
(PID.TID 0000.0001)                 9.999999999999999E-12
(PID.TID 0000.0001)     ;
(PID.TID 0000.0001) fPrime =   /* Second coriolis parameter ( 1/s ) */
(PID.TID 0000.0001)                 0.000000000000000E+00
(PID.TID 0000.0001)     ;
(PID.TID 0000.0001) rigidLid =   /* Rigid lid on/off flag */
(PID.TID 0000.0001)                   F
(PID.TID 0000.0001)     ;
(PID.TID 0000.0001) implicitFreeSurface =   /* Implicit free surface on/off flag */
(PID.TID 0000.0001)                   T
(PID.TID 0000.0001)     ;
(PID.TID 0000.0001) freeSurfFac =   /* Implicit free surface factor */
(PID.TID 0000.0001)                 1.000000000000000E+00
(PID.TID 0000.0001)     ;
(PID.TID 0000.0001) implicSurfPress =  /* Surface Pressure implicit factor (0-1) */
(PID.TID 0000.0001)                 1.000000000000000E+00
(PID.TID 0000.0001)     ;
(PID.TID 0000.0001) implicDiv2DFlow =  /* Barot. Flow Div. implicit factor (0-1) */
(PID.TID 0000.0001)                 1.000000000000000E+00
(PID.TID 0000.0001)     ;
(PID.TID 0000.0001) uniformLin_PhiSurf = /* use uniform Bo_surf on/off flag */
(PID.TID 0000.0001)                   T
(PID.TID 0000.0001)     ;
(PID.TID 0000.0001) uniformFreeSurfLev = /* free-surface level-index is uniform */
(PID.TID 0000.0001)                   T
(PID.TID 0000.0001)     ;
(PID.TID 0000.0001) sIceLoadFac =  /* scale factor for sIceLoad (0-1) */
(PID.TID 0000.0001)                 1.000000000000000E+00
(PID.TID 0000.0001)     ;
(PID.TID 0000.0001) hFacMin =   /* minimum partial cell factor (hFac) */
(PID.TID 0000.0001)                 5.000000000000000E-02
(PID.TID 0000.0001)     ;
(PID.TID 0000.0001) hFacMinDr = /* minimum partial cell thickness ( m) */
(PID.TID 0000.0001)                 5.000000000000000E+01
(PID.TID 0000.0001)     ;
(PID.TID 0000.0001) exactConserv =  /* Exact Volume Conservation on/off flag */
(PID.TID 0000.0001)                   T
(PID.TID 0000.0001)     ;
(PID.TID 0000.0001) linFSConserveTr = /* Tracer correction for Lin Free Surface on/off flag */
(PID.TID 0000.0001)                   F
(PID.TID 0000.0001)     ;
(PID.TID 0000.0001) nonlinFreeSurf = /* Non-linear Free Surf. options (-1,0,1,2,3)*/
(PID.TID 0000.0001)                       4
(PID.TID 0000.0001)      -1,0= Off ; 1,2,3= On, 2=+rescale gU,gV, 3=+update cg2d solv.
(PID.TID 0000.0001)     ;
(PID.TID 0000.0001) hFacInf =   /* lower threshold for hFac (nonlinFreeSurf only)*/
(PID.TID 0000.0001)                 2.000000000000000E-01
(PID.TID 0000.0001)     ;
(PID.TID 0000.0001) hFacSup =   /* upper threshold for hFac (nonlinFreeSurf only)*/
(PID.TID 0000.0001)                 2.000000000000000E+00
(PID.TID 0000.0001)     ;
(PID.TID 0000.0001) select_rStar = /* r* Vertical coord. options (=0 r coord.; >0 uses r*)*/
(PID.TID 0000.0001)                       2
(PID.TID 0000.0001)     ;
(PID.TID 0000.0001) useRealFreshWaterFlux = /* Real Fresh Water Flux on/off flag*/
(PID.TID 0000.0001)                   T
(PID.TID 0000.0001)     ;
(PID.TID 0000.0001) temp_EvPrRn = /* Temp. of Evap/Prec/R (UNSET=use local T)(oC)*/
(PID.TID 0000.0001)                 1.234567000000000E+05
(PID.TID 0000.0001)     ;
(PID.TID 0000.0001) salt_EvPrRn = /* Salin. of Evap/Prec/R (UNSET=use local S)(g/kg)*/
(PID.TID 0000.0001)                 0.000000000000000E+00
(PID.TID 0000.0001)     ;
(PID.TID 0000.0001) selectAddFluid = /* option for mass source/sink of fluid (=0: off) */
(PID.TID 0000.0001)                       0
(PID.TID 0000.0001)     ;
(PID.TID 0000.0001) temp_addMass = /* Temp. of addMass array (UNSET=use local T)(oC)*/
(PID.TID 0000.0001)                 1.234567000000000E+05
(PID.TID 0000.0001)     ;
(PID.TID 0000.0001) salt_addMass = /* Salin. of addMass array (UNSET=use local S)(g/kg)*/
(PID.TID 0000.0001)                 0.000000000000000E+00
(PID.TID 0000.0001)     ;
(PID.TID 0000.0001) use3Dsolver = /* use 3-D pressure solver on/off flag */
(PID.TID 0000.0001)                   F
(PID.TID 0000.0001)     ;
(PID.TID 0000.0001) nonHydrostatic =  /* Non-Hydrostatic on/off flag */
(PID.TID 0000.0001)                   F
(PID.TID 0000.0001)     ;
(PID.TID 0000.0001) nh_Am2 = /* Non-Hydrostatic terms scaling factor */
(PID.TID 0000.0001)                 1.000000000000000E+00
(PID.TID 0000.0001)     ;
(PID.TID 0000.0001) implicitNHPress = /* Non-Hyd Pressure implicit factor (0-1)*/
(PID.TID 0000.0001)                 1.000000000000000E+00
(PID.TID 0000.0001)     ;
(PID.TID 0000.0001) selectNHfreeSurf = /* Non-Hyd (free-)Surface option */
(PID.TID 0000.0001)                       0
(PID.TID 0000.0001)     ;
(PID.TID 0000.0001) quasiHydrostatic = /* Quasi-Hydrostatic on/off flag */
(PID.TID 0000.0001)                   T
(PID.TID 0000.0001)     ;
(PID.TID 0000.0001) calc_wVelocity = /* vertical velocity calculation on/off flag */
(PID.TID 0000.0001)                   T
(PID.TID 0000.0001)     ;
(PID.TID 0000.0001) momStepping =  /* Momentum equation on/off flag */
(PID.TID 0000.0001)                   T
(PID.TID 0000.0001)     ;
(PID.TID 0000.0001) vectorInvariantMomentum= /* Vector-Invariant Momentum on/off */
(PID.TID 0000.0001)                   F
(PID.TID 0000.0001)     ;
(PID.TID 0000.0001) momAdvection =  /* Momentum advection on/off flag */
(PID.TID 0000.0001)                   T
(PID.TID 0000.0001)     ;
(PID.TID 0000.0001) momViscosity =  /* Momentum viscosity on/off flag */
(PID.TID 0000.0001)                   T
(PID.TID 0000.0001)     ;
(PID.TID 0000.0001) momImplVertAdv= /* Momentum implicit vert. advection on/off*/
(PID.TID 0000.0001)                   F
(PID.TID 0000.0001)     ;
(PID.TID 0000.0001) implicitViscosity = /* Implicit viscosity on/off flag */
(PID.TID 0000.0001)                   F
(PID.TID 0000.0001)     ;
(PID.TID 0000.0001) selectImplicitDrag= /* Implicit bot Drag options (0,1,2)*/
(PID.TID 0000.0001)                       0
(PID.TID 0000.0001)     0= Expl. ; 1= Impl. on provis. Vel ; 2= Fully Impl (with surf.P)
(PID.TID 0000.0001)     ;
(PID.TID 0000.0001) metricTerms =  /* metric-Terms on/off flag */
(PID.TID 0000.0001)                   T
(PID.TID 0000.0001)     ;
(PID.TID 0000.0001) useNHMTerms = /* Non-Hydrostatic Metric-Terms on/off */
(PID.TID 0000.0001)                   T
(PID.TID 0000.0001)     ;
(PID.TID 0000.0001) selectCoriMap = /* Coriolis Map options (0,1,2,3)*/
(PID.TID 0000.0001)                       2
(PID.TID 0000.0001)     0= f-Plane ; 1= Beta-Plane ; 2= Spherical ; 3= read from file
(PID.TID 0000.0001)     ;
(PID.TID 0000.0001) use3dCoriolis = /* 3-D Coriolis on/off flag */
(PID.TID 0000.0001)                   T
(PID.TID 0000.0001)     ;
(PID.TID 0000.0001) useCoriolis =  /* Coriolis on/off flag */
(PID.TID 0000.0001)                   T
(PID.TID 0000.0001)     ;
(PID.TID 0000.0001) useCDscheme =  /* CD scheme on/off flag */
(PID.TID 0000.0001)                   T
(PID.TID 0000.0001)     ;
(PID.TID 0000.0001) selectCoriScheme= /* Scheme selector for Coriolis-Term */
(PID.TID 0000.0001)                       0
(PID.TID 0000.0001)    = 0 : original discretization (simple averaging, no hFac)
(PID.TID 0000.0001)    = 1 : Wet-point averaging (Jamar & Ozer 1986)
(PID.TID 0000.0001)    = 2 : energy conserving scheme (no hFac weight)
(PID.TID 0000.0001)    = 3 : energy conserving scheme using Wet-point averaging
(PID.TID 0000.0001)     ;
(PID.TID 0000.0001) momForcing =  /* Momentum forcing on/off flag */
(PID.TID 0000.0001)                   T
(PID.TID 0000.0001)     ;
(PID.TID 0000.0001) momTidalForcing = /* Momentum Tidal forcing on/off flag */
(PID.TID 0000.0001)                   T
(PID.TID 0000.0001)     ;
(PID.TID 0000.0001) momPressureForcing =  /* Momentum pressure term on/off flag */
(PID.TID 0000.0001)                   T
(PID.TID 0000.0001)     ;
(PID.TID 0000.0001) implicitIntGravWave= /* Implicit Internal Gravity Wave flag */
(PID.TID 0000.0001)                   F
(PID.TID 0000.0001)     ;
(PID.TID 0000.0001) staggerTimeStep =    /* Stagger time stepping on/off flag */
(PID.TID 0000.0001)                   F
(PID.TID 0000.0001)     ;
(PID.TID 0000.0001) doResetHFactors = /* reset thickness factors @ each time-step */
(PID.TID 0000.0001)                   T
(PID.TID 0000.0001)     ;
(PID.TID 0000.0001) multiDimAdvection =  /* enable/disable Multi-Dim Advection */
(PID.TID 0000.0001)                   T
(PID.TID 0000.0001)     ;
(PID.TID 0000.0001) useMultiDimAdvec =   /* Multi-Dim Advection is/is-not used */
(PID.TID 0000.0001)                   F
(PID.TID 0000.0001)     ;
(PID.TID 0000.0001) implicitDiffusion = /* Implicit Diffusion on/off flag */
(PID.TID 0000.0001)                   T
(PID.TID 0000.0001)     ;
(PID.TID 0000.0001) tempStepping =  /* Temperature equation on/off flag */
(PID.TID 0000.0001)                   T
(PID.TID 0000.0001)     ;
(PID.TID 0000.0001) tempAdvection = /* Temperature advection on/off flag */
(PID.TID 0000.0001)                   T
(PID.TID 0000.0001)     ;
(PID.TID 0000.0001) tempImplVertAdv = /* Temp. implicit vert. advection on/off */
(PID.TID 0000.0001)                   F
(PID.TID 0000.0001)     ;
(PID.TID 0000.0001) tempForcing  =  /* Temperature forcing on/off flag */
(PID.TID 0000.0001)                   T
(PID.TID 0000.0001)     ;
(PID.TID 0000.0001) doThetaClimRelax = /* apply SST relaxation on/off flag */
(PID.TID 0000.0001)                   T
(PID.TID 0000.0001)     ;
(PID.TID 0000.0001) tempIsActiveTr = /* Temp. is a dynamically Active Tracer */
(PID.TID 0000.0001)                   T
(PID.TID 0000.0001)     ;
(PID.TID 0000.0001) saltStepping =  /* Salinity equation on/off flag */
(PID.TID 0000.0001)                   T
(PID.TID 0000.0001)     ;
(PID.TID 0000.0001) saltAdvection = /* Salinity advection on/off flag */
(PID.TID 0000.0001)                   T
(PID.TID 0000.0001)     ;
(PID.TID 0000.0001) saltImplVertAdv = /* Sali. implicit vert. advection on/off */
(PID.TID 0000.0001)                   F
(PID.TID 0000.0001)     ;
(PID.TID 0000.0001) saltForcing  =  /* Salinity forcing on/off flag */
(PID.TID 0000.0001)                   T
(PID.TID 0000.0001)     ;
(PID.TID 0000.0001) doSaltClimRelax = /* apply SSS relaxation on/off flag */
(PID.TID 0000.0001)                   T
(PID.TID 0000.0001)     ;
(PID.TID 0000.0001) saltIsActiveTr = /* Salt  is a dynamically Active Tracer */
(PID.TID 0000.0001)                   T
(PID.TID 0000.0001)     ;
(PID.TID 0000.0001)  readBinaryPrec = /* Precision used for reading binary files */
(PID.TID 0000.0001)                      32
(PID.TID 0000.0001)     ;
(PID.TID 0000.0001) writeBinaryPrec = /* Precision used for writing binary files */
(PID.TID 0000.0001)                      32
(PID.TID 0000.0001)     ;
(PID.TID 0000.0001)  rwSuffixType =   /* select format of mds file suffix */
(PID.TID 0000.0001)                       0
(PID.TID 0000.0001)    = 0 : myIter (I10.10) ;   = 1 : 100*myTime (100th sec) ;
(PID.TID 0000.0001)    = 2 : myTime (seconds);   = 3 : myTime/360 (10th of hr);
(PID.TID 0000.0001)    = 4 : myTime/3600 (hours)
(PID.TID 0000.0001)     ;
(PID.TID 0000.0001)  globalFiles = /* write "global" (=not per tile) files */
(PID.TID 0000.0001)                   F
(PID.TID 0000.0001)     ;
(PID.TID 0000.0001)  useSingleCpuIO = /* only master MPI process does I/O */
(PID.TID 0000.0001)                   F
(PID.TID 0000.0001)     ;
(PID.TID 0000.0001)  useSingleCpuInput = /* only master process reads input */
(PID.TID 0000.0001)                   F
(PID.TID 0000.0001)     ;
(PID.TID 0000.0001) /* debLev[*]  : level of debug & auxiliary message printing */
(PID.TID 0000.0001) debLevZero =  0 ; /* level of disabled aux. msg printing */
(PID.TID 0000.0001)    debLevA =  1 ; /* level of minimum  aux. msg printing */
(PID.TID 0000.0001)    debLevB =  2 ; /* level of low aux. print (report read-file opening)*/
(PID.TID 0000.0001)    debLevC =  3 ; /* level of moderate debug prt (most pkgs debug msg) */
(PID.TID 0000.0001)    debLevD =  4 ; /* level of enhanced debug prt (add DEBUG_STATS prt) */
(PID.TID 0000.0001)    debLevE =  5 ; /* level of extensive debug printing */
(PID.TID 0000.0001) debugLevel =  /* select debug printing level */
(PID.TID 0000.0001)                       2
(PID.TID 0000.0001)     ;
(PID.TID 0000.0001)  plotLevel =  /* select PLOT_FIELD printing level */
(PID.TID 0000.0001)                       2
(PID.TID 0000.0001)     ;
(PID.TID 0000.0001) //
(PID.TID 0000.0001) // Elliptic solver(s) paramters ( PARM02 in namelist )
(PID.TID 0000.0001) //
(PID.TID 0000.0001) cg2dMaxIters =   /* Upper limit on 2d con. grad iterations  */
(PID.TID 0000.0001)                     500
(PID.TID 0000.0001)     ;
(PID.TID 0000.0001) cg2dMinItersNSA =   /* Minimum number of iterations of 2d con. grad solver  */
(PID.TID 0000.0001)                       0
(PID.TID 0000.0001)     ;
(PID.TID 0000.0001) cg2dUseMinResSol= /* use cg2d last-iter(=0) / min-resid.(=1) solution */
(PID.TID 0000.0001)                       0
(PID.TID 0000.0001)     ;
(PID.TID 0000.0001) cg2dTargetResidual =   /* 2d con. grad target residual  */
(PID.TID 0000.0001)                 1.000000000000000E-13
(PID.TID 0000.0001)     ;
(PID.TID 0000.0001) cg2dTargetResWunit =   /* CG2d target residual [W units] */
(PID.TID 0000.0001)                -1.000000000000000E+00
(PID.TID 0000.0001)     ;
(PID.TID 0000.0001) cg2dPreCondFreq =   /* Freq. for updating cg2d preconditioner */
(PID.TID 0000.0001)                       1
(PID.TID 0000.0001)     ;
(PID.TID 0000.0001) useSRCGSolver =  /* use single reduction CG solver(s) */
(PID.TID 0000.0001)                   F
(PID.TID 0000.0001)     ;
(PID.TID 0000.0001) useNSACGSolver =  /* use not-self-adjoint CG solver */
(PID.TID 0000.0001)                   F
(PID.TID 0000.0001)     ;
(PID.TID 0000.0001) printResidualFreq = /* Freq. for printing CG residual */
(PID.TID 0000.0001)                       0
(PID.TID 0000.0001)     ;
(PID.TID 0000.0001) //
(PID.TID 0000.0001) // Time stepping paramters ( PARM03 in namelist )
(PID.TID 0000.0001) //
(PID.TID 0000.0001) deltaTMom =   /* Momentum equation timestep ( s ) */
(PID.TID 0000.0001)                 1.800000000000000E+03
(PID.TID 0000.0001)     ;
(PID.TID 0000.0001) deltaTFreeSurf = /* FreeSurface equation timestep ( s ) */
(PID.TID 0000.0001)                 8.640000000000000E+04
(PID.TID 0000.0001)     ;
(PID.TID 0000.0001) dTtracerLev =  /* Tracer equation timestep ( s ) */
(PID.TID 0000.0001)    15 @  8.640000000000000E+04              /* K =  1: 15 */
(PID.TID 0000.0001)     ;
(PID.TID 0000.0001) deltaTClock  =   /* Model clock timestep ( s ) */
(PID.TID 0000.0001)                 8.640000000000000E+04
(PID.TID 0000.0001)     ;
(PID.TID 0000.0001) cAdjFreq =   /* Convective adjustment interval ( s ) */
(PID.TID 0000.0001)                 0.000000000000000E+00
(PID.TID 0000.0001)     ;
(PID.TID 0000.0001) momForcingOutAB = /* =1: take Momentum Forcing out of Adams-Bash. stepping */
(PID.TID 0000.0001)                       0
(PID.TID 0000.0001)     ;
(PID.TID 0000.0001) tracForcingOutAB = /* =1: take T,S,pTr Forcing out of Adams-Bash. stepping */
(PID.TID 0000.0001)                       0
(PID.TID 0000.0001)     ;
(PID.TID 0000.0001) momDissip_In_AB = /* put Dissipation Tendency in Adams-Bash. stepping */
(PID.TID 0000.0001)                   T
(PID.TID 0000.0001)     ;
(PID.TID 0000.0001) doAB_onGtGs = /* apply AB on Tendencies (rather than on T,S)*/
(PID.TID 0000.0001)                   T
(PID.TID 0000.0001)     ;
(PID.TID 0000.0001) abEps =   /* Adams-Bashforth-2 stabilizing weight */
(PID.TID 0000.0001)                 1.000000000000000E-01
(PID.TID 0000.0001)     ;
(PID.TID 0000.0001) applyExchUV_early = /* Apply EXCH to U,V earlier in time-step */
(PID.TID 0000.0001)                   F
(PID.TID 0000.0001)     ;
(PID.TID 0000.0001) tauCD =   /* CD coupling time-scale ( s ) */
(PID.TID 0000.0001)                 3.214280000000000E+05
(PID.TID 0000.0001)     ;
(PID.TID 0000.0001) rCD =   /* Normalised CD coupling parameter */
(PID.TID 0000.0001)                 9.943999900444267E-01
(PID.TID 0000.0001)     ;
(PID.TID 0000.0001) epsAB_CD = /* AB-2 stabilizing weight for CD-scheme*/
(PID.TID 0000.0001)                 1.000000000000000E-01
(PID.TID 0000.0001)     ;
(PID.TID 0000.0001) pickupStrictlyMatch= /* stop if pickup do not strictly match */
(PID.TID 0000.0001)                   T
(PID.TID 0000.0001)     ;
(PID.TID 0000.0001) nIter0   =   /* Run starting timestep number */
(PID.TID 0000.0001)                       0
(PID.TID 0000.0001)     ;
(PID.TID 0000.0001) nTimeSteps = /* Number of timesteps */
(PID.TID 0000.0001)                      10
(PID.TID 0000.0001)     ;
(PID.TID 0000.0001) nEndIter =   /* Run ending timestep number */
(PID.TID 0000.0001)                      10
(PID.TID 0000.0001)     ;
(PID.TID 0000.0001) baseTime =   /* Model base time ( s ) */
(PID.TID 0000.0001)                 0.000000000000000E+00
(PID.TID 0000.0001)     ;
(PID.TID 0000.0001) startTime =  /* Run start time ( s ) */
(PID.TID 0000.0001)                 0.000000000000000E+00
(PID.TID 0000.0001)     ;
(PID.TID 0000.0001) endTime  =   /* Integration ending time ( s ) */
(PID.TID 0000.0001)                 8.640000000000000E+05
(PID.TID 0000.0001)     ;
(PID.TID 0000.0001) pChkPtFreq = /* Permanent restart/pickup file interval ( s ) */
(PID.TID 0000.0001)                 3.110400000000000E+08
(PID.TID 0000.0001)     ;
(PID.TID 0000.0001) chkPtFreq  = /* Rolling restart/pickup file interval ( s ) */
(PID.TID 0000.0001)                 0.000000000000000E+00
(PID.TID 0000.0001)     ;
(PID.TID 0000.0001) pickup_write_mdsio =   /* Model IO flag. */
(PID.TID 0000.0001)                   T
(PID.TID 0000.0001)     ;
(PID.TID 0000.0001) pickup_read_mdsio =   /* Model IO flag. */
(PID.TID 0000.0001)                   T
(PID.TID 0000.0001)     ;
(PID.TID 0000.0001) writePickupAtEnd =   /* Model IO flag. */
(PID.TID 0000.0001)                   T
(PID.TID 0000.0001)     ;
(PID.TID 0000.0001) dumpFreq =   /* Model state write out interval ( s ). */
(PID.TID 0000.0001)                 8.640000000000000E+05
(PID.TID 0000.0001)     ;
(PID.TID 0000.0001) dumpInitAndLast= /* write out Initial & Last iter. model state */
(PID.TID 0000.0001)                   T
(PID.TID 0000.0001)     ;
(PID.TID 0000.0001) snapshot_mdsio =   /* Model IO flag. */
(PID.TID 0000.0001)                   T
(PID.TID 0000.0001)     ;
(PID.TID 0000.0001) monitorFreq =   /* Monitor output interval ( s ). */
(PID.TID 0000.0001)                 1.000000000000000E+00
(PID.TID 0000.0001)     ;
(PID.TID 0000.0001) monitorSelect = /* select group of variables to monitor */
(PID.TID 0000.0001)                       3
(PID.TID 0000.0001)     ;
(PID.TID 0000.0001) monitor_stdio =   /* Model IO flag. */
(PID.TID 0000.0001)                   T
(PID.TID 0000.0001)     ;
(PID.TID 0000.0001) externForcingPeriod =   /* forcing period (s) */
(PID.TID 0000.0001)                 2.592000000000000E+06
(PID.TID 0000.0001)     ;
(PID.TID 0000.0001) externForcingCycle =   /* period of the cyle (s). */
(PID.TID 0000.0001)                 3.110400000000000E+07
(PID.TID 0000.0001)     ;
(PID.TID 0000.0001) tauThetaClimRelax =   /* relaxation time scale (s) */
(PID.TID 0000.0001)                 5.184000000000000E+06
(PID.TID 0000.0001)     ;
(PID.TID 0000.0001) tauSaltClimRelax =   /* relaxation time scale (s) */
(PID.TID 0000.0001)                 1.555200000000000E+07
(PID.TID 0000.0001)     ;
(PID.TID 0000.0001) latBandClimRelax =   /* max. Lat. where relaxation */
(PID.TID 0000.0001)                 1.800000000000000E+02
(PID.TID 0000.0001)     ;
(PID.TID 0000.0001) //
(PID.TID 0000.0001) // Gridding paramters ( PARM04 in namelist )
(PID.TID 0000.0001) //
(PID.TID 0000.0001) usingCartesianGrid = /* Cartesian coordinates flag ( True/False ) */
(PID.TID 0000.0001)                   F
(PID.TID 0000.0001)     ;
(PID.TID 0000.0001) usingCylindricalGrid = /* Cylindrical coordinates flag ( True/False ) */
(PID.TID 0000.0001)                   F
(PID.TID 0000.0001)     ;
(PID.TID 0000.0001) usingSphericalPolarGrid = /* Spherical coordinates flag ( True/False ) */
(PID.TID 0000.0001)                   T
(PID.TID 0000.0001)     ;
(PID.TID 0000.0001) usingCurvilinearGrid = /* Curvilinear coordinates flag ( True/False ) */
(PID.TID 0000.0001)                   F
(PID.TID 0000.0001)     ;
(PID.TID 0000.0001) useMin4hFacEdges = /* set hFacW,S as minimum of adjacent hFacC factor */
(PID.TID 0000.0001)                   F
(PID.TID 0000.0001)     ;
(PID.TID 0000.0001) interViscAr_pCell = /* account for partial-cell in interior vert. viscosity */
(PID.TID 0000.0001)                   F
(PID.TID 0000.0001)     ;
(PID.TID 0000.0001) interDiffKr_pCell = /* account for partial-cell in interior vert. diffusion */
(PID.TID 0000.0001)                   F
(PID.TID 0000.0001)     ;
(PID.TID 0000.0001) pCellMix_select = /* option to enhance mixing near surface & bottom */
(PID.TID 0000.0001)                       0
(PID.TID 0000.0001)     ;
(PID.TID 0000.0001) selectSigmaCoord = /* Hybrid-Sigma Vert. Coordinate option */
(PID.TID 0000.0001)                       0
(PID.TID 0000.0001)     ;
(PID.TID 0000.0001) rSigmaBnd = /* r/sigma transition ( units of r ==  m ) */
(PID.TID 0000.0001)                 1.234567000000000E+05
(PID.TID 0000.0001)     ;
(PID.TID 0000.0001) rkSign =   /* index orientation relative to vertical coordinate */
(PID.TID 0000.0001)                -1.000000000000000E+00
(PID.TID 0000.0001)     ;
(PID.TID 0000.0001) gravitySign = /* gravity orientation relative to vertical coordinate */
(PID.TID 0000.0001)                -1.000000000000000E+00
(PID.TID 0000.0001)     ;
(PID.TID 0000.0001) seaLev_Z =  /* reference height of sea-level [m] */
(PID.TID 0000.0001)                 0.000000000000000E+00
(PID.TID 0000.0001)     ;
(PID.TID 0000.0001) top_Pres =  /* reference pressure at the top [Pa] */
(PID.TID 0000.0001)                 0.000000000000000E+00
(PID.TID 0000.0001)     ;
(PID.TID 0000.0001) mass2rUnit = /* convert mass per unit area [kg/m2] to r-units [m] */
(PID.TID 0000.0001)                 9.661835748792270E-04
(PID.TID 0000.0001)     ;
(PID.TID 0000.0001) rUnit2mass = /* convert r-units [m] to mass per unit area [kg/m2] */
(PID.TID 0000.0001)                 1.035000000000000E+03
(PID.TID 0000.0001)     ;
(PID.TID 0000.0001) drC =   /* C spacing ( units of r ) */
(PID.TID 0000.0001)                 2.500000000000000E+01,      /* K =  1 */
(PID.TID 0000.0001)                 6.000000000000000E+01,      /* K =  2 */
(PID.TID 0000.0001)                 8.500000000000000E+01,      /* K =  3 */
(PID.TID 0000.0001)                 1.200000000000000E+02,      /* K =  4 */
(PID.TID 0000.0001)                 1.650000000000000E+02,      /* K =  5 */
(PID.TID 0000.0001)                 2.150000000000000E+02,      /* K =  6 */
(PID.TID 0000.0001)                 2.650000000000000E+02,      /* K =  7 */
(PID.TID 0000.0001)                 3.150000000000000E+02,      /* K =  8 */
(PID.TID 0000.0001)                 3.650000000000000E+02,      /* K =  9 */
(PID.TID 0000.0001)                 4.150000000000000E+02,      /* K = 10 */
(PID.TID 0000.0001)                 4.650000000000000E+02,      /* K = 11 */
(PID.TID 0000.0001)                 5.150000000000000E+02,      /* K = 12 */
(PID.TID 0000.0001)                 5.650000000000000E+02,      /* K = 13 */
(PID.TID 0000.0001)                 6.150000000000000E+02,      /* K = 14 */
(PID.TID 0000.0001)                 6.650000000000000E+02,      /* K = 15 */
(PID.TID 0000.0001)                 3.450000000000000E+02       /* K = 16 */
(PID.TID 0000.0001)     ;
(PID.TID 0000.0001) drF =   /* W spacing ( units of r ) */
(PID.TID 0000.0001)                 5.000000000000000E+01,      /* K =  1 */
(PID.TID 0000.0001)                 7.000000000000000E+01,      /* K =  2 */
(PID.TID 0000.0001)                 1.000000000000000E+02,      /* K =  3 */
(PID.TID 0000.0001)                 1.400000000000000E+02,      /* K =  4 */
(PID.TID 0000.0001)                 1.900000000000000E+02,      /* K =  5 */
(PID.TID 0000.0001)                 2.400000000000000E+02,      /* K =  6 */
(PID.TID 0000.0001)                 2.900000000000000E+02,      /* K =  7 */
(PID.TID 0000.0001)                 3.400000000000000E+02,      /* K =  8 */
(PID.TID 0000.0001)                 3.900000000000000E+02,      /* K =  9 */
(PID.TID 0000.0001)                 4.400000000000000E+02,      /* K = 10 */
(PID.TID 0000.0001)                 4.900000000000000E+02,      /* K = 11 */
(PID.TID 0000.0001)                 5.400000000000000E+02,      /* K = 12 */
(PID.TID 0000.0001)                 5.900000000000000E+02,      /* K = 13 */
(PID.TID 0000.0001)                 6.400000000000000E+02,      /* K = 14 */
(PID.TID 0000.0001)                 6.900000000000000E+02       /* K = 15 */
(PID.TID 0000.0001)     ;
(PID.TID 0000.0001) delX = /* U spacing ( m - cartesian, degrees - spherical ) */
(PID.TID 0000.0001)    90 @  4.000000000000000E+00              /* I =  1: 90 */
(PID.TID 0000.0001)     ;
(PID.TID 0000.0001) delY = /* V spacing ( m - cartesian, degrees - spherical ) */
(PID.TID 0000.0001)    40 @  4.000000000000000E+00              /* J =  1: 40 */
(PID.TID 0000.0001)     ;
(PID.TID 0000.0001) xgOrigin = /* X-axis origin of West  edge (cartesian: m, lat-lon: deg) */
(PID.TID 0000.0001)                 0.000000000000000E+00
(PID.TID 0000.0001)     ;
(PID.TID 0000.0001) ygOrigin = /* Y-axis origin of South edge (cartesian: m, lat-lon: deg) */
(PID.TID 0000.0001)                -8.000000000000000E+01
(PID.TID 0000.0001)     ;
(PID.TID 0000.0001) rSphere =  /* Radius ( ignored - cartesian, m - spherical ) */
(PID.TID 0000.0001)                 6.370000000000000E+06
(PID.TID 0000.0001)     ;
(PID.TID 0000.0001) deepAtmosphere = /* Deep/Shallow Atmosphere flag (True/False) */
(PID.TID 0000.0001)                   F
(PID.TID 0000.0001)     ;
(PID.TID 0000.0001) xC =  /* xC(:,1,:,1) : P-point X coord ( deg. or m if cartesian) */
(PID.TID 0000.0001)                 2.000000000000000E+00,      /* I =  1 */
(PID.TID 0000.0001)                 6.000000000000000E+00,      /* I =  2 */
(PID.TID 0000.0001)                 1.000000000000000E+01,      /* I =  3 */
(PID.TID 0000.0001)      . . .
(PID.TID 0000.0001)                 8.200000000000000E+01,      /* I = 21 */
(PID.TID 0000.0001)                 8.600000000000000E+01,      /* I = 22 */
(PID.TID 0000.0001)                 9.000000000000000E+01,      /* I = 23 */
(PID.TID 0000.0001)                 9.400000000000000E+01,      /* I = 24 */
(PID.TID 0000.0001)                 9.800000000000000E+01,      /* I = 25 */
(PID.TID 0000.0001)                 1.020000000000000E+02,      /* I = 26 */
(PID.TID 0000.0001)      . . .
(PID.TID 0000.0001)                 1.700000000000000E+02,      /* I = 43 */
(PID.TID 0000.0001)                 1.740000000000000E+02,      /* I = 44 */
(PID.TID 0000.0001)                 1.780000000000000E+02,      /* I = 45 */
(PID.TID 0000.0001)                 1.820000000000000E+02,      /* I = 46 */
(PID.TID 0000.0001)                 1.860000000000000E+02,      /* I = 47 */
(PID.TID 0000.0001)                 1.900000000000000E+02,      /* I = 48 */
(PID.TID 0000.0001)      . . .
(PID.TID 0000.0001)                 2.580000000000000E+02,      /* I = 65 */
(PID.TID 0000.0001)                 2.620000000000000E+02,      /* I = 66 */
(PID.TID 0000.0001)                 2.660000000000000E+02,      /* I = 67 */
(PID.TID 0000.0001)                 2.700000000000000E+02,      /* I = 68 */
(PID.TID 0000.0001)                 2.740000000000000E+02,      /* I = 69 */
(PID.TID 0000.0001)                 2.780000000000000E+02,      /* I = 70 */
(PID.TID 0000.0001)      . . .
(PID.TID 0000.0001)                 3.500000000000000E+02,      /* I = 88 */
(PID.TID 0000.0001)                 3.540000000000000E+02,      /* I = 89 */
(PID.TID 0000.0001)                 3.580000000000000E+02       /* I = 90 */
(PID.TID 0000.0001)     ;
(PID.TID 0000.0001) yC =  /* yC(1,:,1,:) : P-point Y coord ( deg. or m if cartesian) */
(PID.TID 0000.0001)                -7.800000000000000E+01,      /* J =  1 */
(PID.TID 0000.0001)                -7.400000000000000E+01,      /* J =  2 */
(PID.TID 0000.0001)                -7.000000000000000E+01,      /* J =  3 */
(PID.TID 0000.0001)                -6.600000000000000E+01,      /* J =  4 */
(PID.TID 0000.0001)                -6.200000000000000E+01,      /* J =  5 */
(PID.TID 0000.0001)                -5.800000000000000E+01,      /* J =  6 */
(PID.TID 0000.0001)                -5.400000000000000E+01,      /* J =  7 */
(PID.TID 0000.0001)                -5.000000000000000E+01,      /* J =  8 */
(PID.TID 0000.0001)                -4.600000000000000E+01,      /* J =  9 */
(PID.TID 0000.0001)                -4.200000000000000E+01,      /* J = 10 */
(PID.TID 0000.0001)                -3.800000000000000E+01,      /* J = 11 */
(PID.TID 0000.0001)                -3.400000000000000E+01,      /* J = 12 */
(PID.TID 0000.0001)                -3.000000000000000E+01,      /* J = 13 */
(PID.TID 0000.0001)                -2.600000000000000E+01,      /* J = 14 */
(PID.TID 0000.0001)                -2.200000000000000E+01,      /* J = 15 */
(PID.TID 0000.0001)                -1.800000000000000E+01,      /* J = 16 */
(PID.TID 0000.0001)                -1.400000000000000E+01,      /* J = 17 */
(PID.TID 0000.0001)                -1.000000000000000E+01,      /* J = 18 */
(PID.TID 0000.0001)                -6.000000000000000E+00,      /* J = 19 */
(PID.TID 0000.0001)                -2.000000000000000E+00,      /* J = 20 */
(PID.TID 0000.0001)                 2.000000000000000E+00,      /* J = 21 */
(PID.TID 0000.0001)                 6.000000000000000E+00,      /* J = 22 */
(PID.TID 0000.0001)                 1.000000000000000E+01,      /* J = 23 */
(PID.TID 0000.0001)                 1.400000000000000E+01,      /* J = 24 */
(PID.TID 0000.0001)                 1.800000000000000E+01,      /* J = 25 */
(PID.TID 0000.0001)                 2.200000000000000E+01,      /* J = 26 */
(PID.TID 0000.0001)                 2.600000000000000E+01,      /* J = 27 */
(PID.TID 0000.0001)                 3.000000000000000E+01,      /* J = 28 */
(PID.TID 0000.0001)                 3.400000000000000E+01,      /* J = 29 */
(PID.TID 0000.0001)                 3.800000000000000E+01,      /* J = 30 */
(PID.TID 0000.0001)                 4.200000000000000E+01,      /* J = 31 */
(PID.TID 0000.0001)                 4.600000000000000E+01,      /* J = 32 */
(PID.TID 0000.0001)                 5.000000000000000E+01,      /* J = 33 */
(PID.TID 0000.0001)                 5.400000000000000E+01,      /* J = 34 */
(PID.TID 0000.0001)                 5.800000000000000E+01,      /* J = 35 */
(PID.TID 0000.0001)                 6.200000000000000E+01,      /* J = 36 */
(PID.TID 0000.0001)                 6.600000000000000E+01,      /* J = 37 */
(PID.TID 0000.0001)                 7.000000000000000E+01,      /* J = 38 */
(PID.TID 0000.0001)                 7.400000000000000E+01,      /* J = 39 */
(PID.TID 0000.0001)                 7.800000000000000E+01       /* J = 40 */
(PID.TID 0000.0001)     ;
(PID.TID 0000.0001) rcoord = /* P-point R coordinate (  units of r ) */
(PID.TID 0000.0001)                -2.500000000000000E+01,      /* K =  1 */
(PID.TID 0000.0001)                -8.500000000000000E+01,      /* K =  2 */
(PID.TID 0000.0001)                -1.700000000000000E+02,      /* K =  3 */
(PID.TID 0000.0001)                -2.900000000000000E+02,      /* K =  4 */
(PID.TID 0000.0001)                -4.550000000000000E+02,      /* K =  5 */
(PID.TID 0000.0001)                -6.700000000000000E+02,      /* K =  6 */
(PID.TID 0000.0001)                -9.350000000000000E+02,      /* K =  7 */
(PID.TID 0000.0001)                -1.250000000000000E+03,      /* K =  8 */
(PID.TID 0000.0001)                -1.615000000000000E+03,      /* K =  9 */
(PID.TID 0000.0001)                -2.030000000000000E+03,      /* K = 10 */
(PID.TID 0000.0001)                -2.495000000000000E+03,      /* K = 11 */
(PID.TID 0000.0001)                -3.010000000000000E+03,      /* K = 12 */
(PID.TID 0000.0001)                -3.575000000000000E+03,      /* K = 13 */
(PID.TID 0000.0001)                -4.190000000000000E+03,      /* K = 14 */
(PID.TID 0000.0001)                -4.855000000000000E+03       /* K = 15 */
(PID.TID 0000.0001)     ;
(PID.TID 0000.0001) rF =   /* W-Interf. R coordinate (  units of r ) */
(PID.TID 0000.0001)                 0.000000000000000E+00,      /* K =  1 */
(PID.TID 0000.0001)                -5.000000000000000E+01,      /* K =  2 */
(PID.TID 0000.0001)                -1.200000000000000E+02,      /* K =  3 */
(PID.TID 0000.0001)                -2.200000000000000E+02,      /* K =  4 */
(PID.TID 0000.0001)                -3.600000000000000E+02,      /* K =  5 */
(PID.TID 0000.0001)                -5.500000000000000E+02,      /* K =  6 */
(PID.TID 0000.0001)                -7.900000000000000E+02,      /* K =  7 */
(PID.TID 0000.0001)                -1.080000000000000E+03,      /* K =  8 */
(PID.TID 0000.0001)                -1.420000000000000E+03,      /* K =  9 */
(PID.TID 0000.0001)                -1.810000000000000E+03,      /* K = 10 */
(PID.TID 0000.0001)                -2.250000000000000E+03,      /* K = 11 */
(PID.TID 0000.0001)                -2.740000000000000E+03,      /* K = 12 */
(PID.TID 0000.0001)                -3.280000000000000E+03,      /* K = 13 */
(PID.TID 0000.0001)                -3.870000000000000E+03,      /* K = 14 */
(PID.TID 0000.0001)                -4.510000000000000E+03,      /* K = 15 */
(PID.TID 0000.0001)                -5.200000000000000E+03       /* K = 16 */
(PID.TID 0000.0001)     ;
(PID.TID 0000.0001) deepFacC = /* deep-model grid factor @ cell-Center (-) */
(PID.TID 0000.0001)    15 @  1.000000000000000E+00              /* K =  1: 15 */
(PID.TID 0000.0001)     ;
(PID.TID 0000.0001) deepFacF = /* deep-model grid factor @ W-Interface (-) */
(PID.TID 0000.0001)    16 @  1.000000000000000E+00              /* K =  1: 16 */
(PID.TID 0000.0001)     ;
(PID.TID 0000.0001) rotateGrid = /* use rotated grid ( True/False ) */
(PID.TID 0000.0001)                   F
(PID.TID 0000.0001)     ;
(PID.TID 0000.0001) phiEuler = /* Euler angle, rotation about original z-coordinate [rad] */
(PID.TID 0000.0001)                 0.000000000000000E+00
(PID.TID 0000.0001)     ;
(PID.TID 0000.0001) thetaEuler = /* Euler angle, rotation about new x-coordinate [rad] */
(PID.TID 0000.0001)                 0.000000000000000E+00
(PID.TID 0000.0001)     ;
(PID.TID 0000.0001) psiEuler = /* Euler angle, rotation about new z-coordinate [rad] */
(PID.TID 0000.0001)                 0.000000000000000E+00
(PID.TID 0000.0001)     ;
(PID.TID 0000.0001) dxF =  /* dxF(:,1,:,1) ( units: m ) */
(PID.TID 0000.0001)    90 @  9.246038586187513E+04              /* I =  1: 90 */
(PID.TID 0000.0001)     ;
(PID.TID 0000.0001) dxF =  /* dxF(1,:,1,:) ( units: m ) */
(PID.TID 0000.0001)                 9.246038586187513E+04,      /* J =  1 */
(PID.TID 0000.0001)                 1.225786591246834E+05,      /* J =  2 */
(PID.TID 0000.0001)                 1.520997414818001E+05,      /* J =  3 */
(PID.TID 0000.0001)                 1.808798091874300E+05,      /* J =  4 */
(PID.TID 0000.0001)                 2.087786486446736E+05,      /* J =  5 */
(PID.TID 0000.0001)                 2.356603395120765E+05,      /* J =  6 */
(PID.TID 0000.0001)                 2.613939168938713E+05,      /* J =  7 */
(PID.TID 0000.0001)                 2.858540093877838E+05,      /* J =  8 */
(PID.TID 0000.0001)                 3.089214498819034E+05,      /* J =  9 */
(PID.TID 0000.0001)                 3.304838561248741E+05,      /* J = 10 */
(PID.TID 0000.0001)                 3.504361782409254E+05,      /* J = 11 */
(PID.TID 0000.0001)                 3.686812105223082E+05,      /* J = 12 */
(PID.TID 0000.0001)                 3.851300650057323E+05,      /* J = 13 */
(PID.TID 0000.0001)                 3.997026045255871E+05,      /* J = 14 */
(PID.TID 0000.0001)                 4.123278331341585E+05,      /* J = 15 */
(PID.TID 0000.0001)                 4.229442419867491E+05,      /* J = 16 */
(PID.TID 0000.0001)                 4.315001090065870E+05,      /* J = 17 */
(PID.TID 0000.0001)                 4.379537508695838E+05,      /* J = 18 */
(PID.TID 0000.0001)                 4.422737260813012E+05,      /* J = 19 */
(PID.TID 0000.0001)     2 @  4.444389881567502E+05,             /* J = 20: 21 */
(PID.TID 0000.0001)                 4.422737260813012E+05,      /* J = 22 */
(PID.TID 0000.0001)                 4.379537508695838E+05,      /* J = 23 */
(PID.TID 0000.0001)                 4.315001090065870E+05,      /* J = 24 */
(PID.TID 0000.0001)                 4.229442419867491E+05,      /* J = 25 */
(PID.TID 0000.0001)                 4.123278331341585E+05,      /* J = 26 */
(PID.TID 0000.0001)                 3.997026045255871E+05,      /* J = 27 */
(PID.TID 0000.0001)                 3.851300650057323E+05,      /* J = 28 */
(PID.TID 0000.0001)                 3.686812105223082E+05,      /* J = 29 */
(PID.TID 0000.0001)                 3.504361782409254E+05,      /* J = 30 */
(PID.TID 0000.0001)                 3.304838561248741E+05,      /* J = 31 */
(PID.TID 0000.0001)                 3.089214498819034E+05,      /* J = 32 */
(PID.TID 0000.0001)                 2.858540093877838E+05,      /* J = 33 */
(PID.TID 0000.0001)                 2.613939168938713E+05,      /* J = 34 */
(PID.TID 0000.0001)                 2.356603395120765E+05,      /* J = 35 */
(PID.TID 0000.0001)                 2.087786486446736E+05,      /* J = 36 */
(PID.TID 0000.0001)                 1.808798091874300E+05,      /* J = 37 */
(PID.TID 0000.0001)                 1.520997414818001E+05,      /* J = 38 */
(PID.TID 0000.0001)                 1.225786591246834E+05,      /* J = 39 */
(PID.TID 0000.0001)                 9.246038586187513E+04       /* J = 40 */
(PID.TID 0000.0001)     ;
(PID.TID 0000.0001) dyF =  /* dyF(:,1,:,1) ( units: m ) */
(PID.TID 0000.0001)    90 @  4.447098934081552E+05              /* I =  1: 90 */
(PID.TID 0000.0001)     ;
(PID.TID 0000.0001) dyF =  /* dyF(1,:,1,:) ( units: m ) */
(PID.TID 0000.0001)    40 @  4.447098934081552E+05              /* J =  1: 40 */
(PID.TID 0000.0001)     ;
(PID.TID 0000.0001) dxG =  /* dxG(:,1,:,1) ( units: m ) */
(PID.TID 0000.0001)    90 @  7.722306258078101E+04              /* I =  1: 90 */
(PID.TID 0000.0001)     ;
(PID.TID 0000.0001) dxG =  /* dxG(1,:,1,:) ( units: m ) */
(PID.TID 0000.0001)                 7.722306258078101E+04,      /* J =  1 */
(PID.TID 0000.0001)                 1.075850604052271E+05,      /* J =  2 */
(PID.TID 0000.0001)                 1.374229146297914E+05,      /* J =  3 */
(PID.TID 0000.0001)                 1.665912582279823E+05,      /* J =  4 */
(PID.TID 0000.0001)                 1.949479859617814E+05,      /* J =  5 */
(PID.TID 0000.0001)                 2.223549467040777E+05,      /* J =  6 */
(PID.TID 0000.0001)                 2.486786164970726E+05,      /* J =  7 */
(PID.TID 0000.0001)                 2.737907490675810E+05,      /* J =  8 */
(PID.TID 0000.0001)                 2.975690006299821E+05,      /* J =  9 */
(PID.TID 0000.0001)                 3.198975259328452E+05,      /* J = 10 */
(PID.TID 0000.0001)                 3.406675426453503E+05,      /* J = 11 */
(PID.TID 0000.0001)                 3.597778613338690E+05,      /* J = 12 */
(PID.TID 0000.0001)                 3.771353784467131E+05,      /* J = 13 */
(PID.TID 0000.0001)                 3.926555299052806E+05,      /* J = 14 */
(PID.TID 0000.0001)                 4.062627030917454E+05,      /* J = 15 */
(PID.TID 0000.0001)                 4.178906052261313E+05,      /* J = 16 */
(PID.TID 0000.0001)                 4.274825863380723E+05,      /* J = 17 */
(PID.TID 0000.0001)                 4.349919152597734E+05,      /* J = 18 */
(PID.TID 0000.0001)                 4.403820072955634E+05,      /* J = 19 */
(PID.TID 0000.0001)                 4.436266024588540E+05,      /* J = 20 */
(PID.TID 0000.0001)                 4.447098934081552E+05,      /* J = 21 */
(PID.TID 0000.0001)                 4.436266024588540E+05,      /* J = 22 */
(PID.TID 0000.0001)                 4.403820072955634E+05,      /* J = 23 */
(PID.TID 0000.0001)                 4.349919152597734E+05,      /* J = 24 */
(PID.TID 0000.0001)                 4.274825863380723E+05,      /* J = 25 */
(PID.TID 0000.0001)                 4.178906052261313E+05,      /* J = 26 */
(PID.TID 0000.0001)                 4.062627030917454E+05,      /* J = 27 */
(PID.TID 0000.0001)                 3.926555299052806E+05,      /* J = 28 */
(PID.TID 0000.0001)                 3.771353784467131E+05,      /* J = 29 */
(PID.TID 0000.0001)                 3.597778613338690E+05,      /* J = 30 */
(PID.TID 0000.0001)                 3.406675426453503E+05,      /* J = 31 */
(PID.TID 0000.0001)                 3.198975259328452E+05,      /* J = 32 */
(PID.TID 0000.0001)                 2.975690006299821E+05,      /* J = 33 */
(PID.TID 0000.0001)                 2.737907490675810E+05,      /* J = 34 */
(PID.TID 0000.0001)                 2.486786164970726E+05,      /* J = 35 */
(PID.TID 0000.0001)                 2.223549467040777E+05,      /* J = 36 */
(PID.TID 0000.0001)                 1.949479859617814E+05,      /* J = 37 */
(PID.TID 0000.0001)                 1.665912582279823E+05,      /* J = 38 */
(PID.TID 0000.0001)                 1.374229146297914E+05,      /* J = 39 */
(PID.TID 0000.0001)                 1.075850604052271E+05       /* J = 40 */
(PID.TID 0000.0001)     ;
(PID.TID 0000.0001) dyG =  /* dyG(:,1,:,1) ( units: m ) */
(PID.TID 0000.0001)    90 @  4.447098934081552E+05              /* I =  1: 90 */
(PID.TID 0000.0001)     ;
(PID.TID 0000.0001) dyG =  /* dyG(1,:,1,:) ( units: m ) */
(PID.TID 0000.0001)    40 @  4.447098934081552E+05              /* J =  1: 40 */
(PID.TID 0000.0001)     ;
(PID.TID 0000.0001) dxC =  /* dxC(:,1,:,1) ( units: m ) */
(PID.TID 0000.0001)    90 @  9.246038586187513E+04              /* I =  1: 90 */
(PID.TID 0000.0001)     ;
(PID.TID 0000.0001) dxC =  /* dxC(1,:,1,:) ( units: m ) */
(PID.TID 0000.0001)                 9.246038586187513E+04,      /* J =  1 */
(PID.TID 0000.0001)                 1.225786591246834E+05,      /* J =  2 */
(PID.TID 0000.0001)                 1.520997414818001E+05,      /* J =  3 */
(PID.TID 0000.0001)                 1.808798091874300E+05,      /* J =  4 */
(PID.TID 0000.0001)                 2.087786486446736E+05,      /* J =  5 */
(PID.TID 0000.0001)                 2.356603395120765E+05,      /* J =  6 */
(PID.TID 0000.0001)                 2.613939168938713E+05,      /* J =  7 */
(PID.TID 0000.0001)                 2.858540093877838E+05,      /* J =  8 */
(PID.TID 0000.0001)                 3.089214498819034E+05,      /* J =  9 */
(PID.TID 0000.0001)                 3.304838561248741E+05,      /* J = 10 */
(PID.TID 0000.0001)                 3.504361782409254E+05,      /* J = 11 */
(PID.TID 0000.0001)                 3.686812105223082E+05,      /* J = 12 */
(PID.TID 0000.0001)                 3.851300650057323E+05,      /* J = 13 */
(PID.TID 0000.0001)                 3.997026045255871E+05,      /* J = 14 */
(PID.TID 0000.0001)                 4.123278331341585E+05,      /* J = 15 */
(PID.TID 0000.0001)                 4.229442419867491E+05,      /* J = 16 */
(PID.TID 0000.0001)                 4.315001090065870E+05,      /* J = 17 */
(PID.TID 0000.0001)                 4.379537508695838E+05,      /* J = 18 */
(PID.TID 0000.0001)                 4.422737260813012E+05,      /* J = 19 */
(PID.TID 0000.0001)     2 @  4.444389881567502E+05,             /* J = 20: 21 */
(PID.TID 0000.0001)                 4.422737260813012E+05,      /* J = 22 */
(PID.TID 0000.0001)                 4.379537508695838E+05,      /* J = 23 */
(PID.TID 0000.0001)                 4.315001090065870E+05,      /* J = 24 */
(PID.TID 0000.0001)                 4.229442419867491E+05,      /* J = 25 */
(PID.TID 0000.0001)                 4.123278331341585E+05,      /* J = 26 */
(PID.TID 0000.0001)                 3.997026045255871E+05,      /* J = 27 */
(PID.TID 0000.0001)                 3.851300650057323E+05,      /* J = 28 */
(PID.TID 0000.0001)                 3.686812105223082E+05,      /* J = 29 */
(PID.TID 0000.0001)                 3.504361782409254E+05,      /* J = 30 */
(PID.TID 0000.0001)                 3.304838561248741E+05,      /* J = 31 */
(PID.TID 0000.0001)                 3.089214498819034E+05,      /* J = 32 */
(PID.TID 0000.0001)                 2.858540093877838E+05,      /* J = 33 */
(PID.TID 0000.0001)                 2.613939168938713E+05,      /* J = 34 */
(PID.TID 0000.0001)                 2.356603395120765E+05,      /* J = 35 */
(PID.TID 0000.0001)                 2.087786486446736E+05,      /* J = 36 */
(PID.TID 0000.0001)                 1.808798091874300E+05,      /* J = 37 */
(PID.TID 0000.0001)                 1.520997414818001E+05,      /* J = 38 */
(PID.TID 0000.0001)                 1.225786591246834E+05,      /* J = 39 */
(PID.TID 0000.0001)                 9.246038586187513E+04       /* J = 40 */
(PID.TID 0000.0001)     ;
(PID.TID 0000.0001) dyC =  /* dyC(:,1,:,1) ( units: m ) */
(PID.TID 0000.0001)    90 @  4.447098934081552E+05              /* I =  1: 90 */
(PID.TID 0000.0001)     ;
(PID.TID 0000.0001) dyC =  /* dyC(1,:,1,:) ( units: m ) */
(PID.TID 0000.0001)    40 @  4.447098934081552E+05              /* J =  1: 40 */
(PID.TID 0000.0001)     ;
(PID.TID 0000.0001) dxV =  /* dxV(:,1,:,1) ( units: m ) */
(PID.TID 0000.0001)    90 @  7.722306258078101E+04              /* I =  1: 90 */
(PID.TID 0000.0001)     ;
(PID.TID 0000.0001) dxV =  /* dxV(1,:,1,:) ( units: m ) */
(PID.TID 0000.0001)                 7.722306258078101E+04,      /* J =  1 */
(PID.TID 0000.0001)                 1.075850604052271E+05,      /* J =  2 */
(PID.TID 0000.0001)                 1.374229146297914E+05,      /* J =  3 */
(PID.TID 0000.0001)                 1.665912582279823E+05,      /* J =  4 */
(PID.TID 0000.0001)                 1.949479859617814E+05,      /* J =  5 */
(PID.TID 0000.0001)                 2.223549467040777E+05,      /* J =  6 */
(PID.TID 0000.0001)                 2.486786164970726E+05,      /* J =  7 */
(PID.TID 0000.0001)                 2.737907490675810E+05,      /* J =  8 */
(PID.TID 0000.0001)                 2.975690006299821E+05,      /* J =  9 */
(PID.TID 0000.0001)                 3.198975259328452E+05,      /* J = 10 */
(PID.TID 0000.0001)                 3.406675426453503E+05,      /* J = 11 */
(PID.TID 0000.0001)                 3.597778613338690E+05,      /* J = 12 */
(PID.TID 0000.0001)                 3.771353784467131E+05,      /* J = 13 */
(PID.TID 0000.0001)                 3.926555299052806E+05,      /* J = 14 */
(PID.TID 0000.0001)                 4.062627030917454E+05,      /* J = 15 */
(PID.TID 0000.0001)                 4.178906052261313E+05,      /* J = 16 */
(PID.TID 0000.0001)                 4.274825863380723E+05,      /* J = 17 */
(PID.TID 0000.0001)                 4.349919152597734E+05,      /* J = 18 */
(PID.TID 0000.0001)                 4.403820072955634E+05,      /* J = 19 */
(PID.TID 0000.0001)                 4.436266024588540E+05,      /* J = 20 */
(PID.TID 0000.0001)                 4.447098934081552E+05,      /* J = 21 */
(PID.TID 0000.0001)                 4.436266024588540E+05,      /* J = 22 */
(PID.TID 0000.0001)                 4.403820072955634E+05,      /* J = 23 */
(PID.TID 0000.0001)                 4.349919152597734E+05,      /* J = 24 */
(PID.TID 0000.0001)                 4.274825863380723E+05,      /* J = 25 */
(PID.TID 0000.0001)                 4.178906052261313E+05,      /* J = 26 */
(PID.TID 0000.0001)                 4.062627030917454E+05,      /* J = 27 */
(PID.TID 0000.0001)                 3.926555299052806E+05,      /* J = 28 */
(PID.TID 0000.0001)                 3.771353784467131E+05,      /* J = 29 */
(PID.TID 0000.0001)                 3.597778613338690E+05,      /* J = 30 */
(PID.TID 0000.0001)                 3.406675426453503E+05,      /* J = 31 */
(PID.TID 0000.0001)                 3.198975259328452E+05,      /* J = 32 */
(PID.TID 0000.0001)                 2.975690006299821E+05,      /* J = 33 */
(PID.TID 0000.0001)                 2.737907490675810E+05,      /* J = 34 */
(PID.TID 0000.0001)                 2.486786164970726E+05,      /* J = 35 */
(PID.TID 0000.0001)                 2.223549467040777E+05,      /* J = 36 */
(PID.TID 0000.0001)                 1.949479859617814E+05,      /* J = 37 */
(PID.TID 0000.0001)                 1.665912582279823E+05,      /* J = 38 */
(PID.TID 0000.0001)                 1.374229146297914E+05,      /* J = 39 */
(PID.TID 0000.0001)                 1.075850604052271E+05       /* J = 40 */
(PID.TID 0000.0001)     ;
(PID.TID 0000.0001) dyU =  /* dyU(:,1,:,1) ( units: m ) */
(PID.TID 0000.0001)    90 @  4.447098934081552E+05              /* I =  1: 90 */
(PID.TID 0000.0001)     ;
(PID.TID 0000.0001) dyU =  /* dyU(1,:,1,:) ( units: m ) */
(PID.TID 0000.0001)    40 @  4.447098934081552E+05              /* J =  1: 40 */
(PID.TID 0000.0001)     ;
(PID.TID 0000.0001) rA  =  /* rA (:,1,:,1) ( units: m^2 ) */
(PID.TID 0000.0001)    90 @  4.110969866729047E+10              /* I =  1: 90 */
(PID.TID 0000.0001)     ;
(PID.TID 0000.0001) rA  =  /* rA (1,:,1,:) ( units: m^2 ) */
(PID.TID 0000.0001)                 4.110969866729047E+10,      /* J =  1 */
(PID.TID 0000.0001)                 5.450087291636665E+10,      /* J =  2 */
(PID.TID 0000.0001)                 6.762652439100235E+10,      /* J =  3 */
(PID.TID 0000.0001)                 8.042270623659998E+10,      /* J =  4 */
(PID.TID 0000.0001)                 9.282707674147523E+10,      /* J =  5 */
(PID.TID 0000.0001)                 1.047792030594103E+11,      /* J =  6 */
(PID.TID 0000.0001)                 1.162208556324093E+11,      /* J =  7 */
(PID.TID 0000.0001)                 1.270962918792468E+11,      /* J =  8 */
(PID.TID 0000.0001)                 1.373525277677229E+11,      /* J =  9 */
(PID.TID 0000.0001)                 1.469395959475426E+11,      /* J = 10 */
(PID.TID 0000.0001)                 1.558107891862220E+11,      /* J = 11 */
(PID.TID 0000.0001)                 1.639228879220326E+11,      /* J = 12 */
(PID.TID 0000.0001)                 1.712363708253573E+11,      /* J = 13 */
(PID.TID 0000.0001)                 1.777156073426415E+11,      /* J = 14 */
(PID.TID 0000.0001)                 1.833290312848623E+11,      /* J = 15 */
(PID.TID 0000.0001)                 1.880492946148330E+11,      /* J = 16 */
(PID.TID 0000.0001)                 1.918534006840893E+11,      /* J = 17 */
(PID.TID 0000.0001)                 1.947228162702492E+11,      /* J = 18 */
(PID.TID 0000.0001)                 1.966435618690094E+11,      /* J = 19 */
(PID.TID 0000.0001)     2 @  1.976062798008856E+11,             /* J = 20: 21 */
(PID.TID 0000.0001)                 1.966435618690094E+11,      /* J = 22 */
(PID.TID 0000.0001)                 1.947228162702492E+11,      /* J = 23 */
(PID.TID 0000.0001)                 1.918534006840893E+11,      /* J = 24 */
(PID.TID 0000.0001)                 1.880492946148330E+11,      /* J = 25 */
(PID.TID 0000.0001)                 1.833290312848623E+11,      /* J = 26 */
(PID.TID 0000.0001)                 1.777156073426415E+11,      /* J = 27 */
(PID.TID 0000.0001)                 1.712363708253573E+11,      /* J = 28 */
(PID.TID 0000.0001)                 1.639228879220326E+11,      /* J = 29 */
(PID.TID 0000.0001)                 1.558107891862220E+11,      /* J = 30 */
(PID.TID 0000.0001)                 1.469395959475426E+11,      /* J = 31 */
(PID.TID 0000.0001)                 1.373525277677229E+11,      /* J = 32 */
(PID.TID 0000.0001)                 1.270962918792468E+11,      /* J = 33 */
(PID.TID 0000.0001)                 1.162208556324093E+11,      /* J = 34 */
(PID.TID 0000.0001)                 1.047792030594103E+11,      /* J = 35 */
(PID.TID 0000.0001)                 9.282707674147523E+10,      /* J = 36 */
(PID.TID 0000.0001)                 8.042270623659998E+10,      /* J = 37 */
(PID.TID 0000.0001)                 6.762652439100235E+10,      /* J = 38 */
(PID.TID 0000.0001)                 5.450087291636665E+10,      /* J = 39 */
(PID.TID 0000.0001)                 4.110969866729047E+10       /* J = 40 */
(PID.TID 0000.0001)     ;
(PID.TID 0000.0001) rAw =  /* rAw(:,1,:,1) ( units: m^2 ) */
(PID.TID 0000.0001)    90 @  4.110969866729047E+10              /* I =  1: 90 */
(PID.TID 0000.0001)     ;
(PID.TID 0000.0001) rAw =  /* rAw(1,:,1,:) ( units: m^2 ) */
(PID.TID 0000.0001)                 4.110969866729047E+10,      /* J =  1 */
(PID.TID 0000.0001)                 5.450087291636665E+10,      /* J =  2 */
(PID.TID 0000.0001)                 6.762652439100235E+10,      /* J =  3 */
(PID.TID 0000.0001)                 8.042270623659998E+10,      /* J =  4 */
(PID.TID 0000.0001)                 9.282707674147523E+10,      /* J =  5 */
(PID.TID 0000.0001)                 1.047792030594103E+11,      /* J =  6 */
(PID.TID 0000.0001)                 1.162208556324093E+11,      /* J =  7 */
(PID.TID 0000.0001)                 1.270962918792468E+11,      /* J =  8 */
(PID.TID 0000.0001)                 1.373525277677229E+11,      /* J =  9 */
(PID.TID 0000.0001)                 1.469395959475426E+11,      /* J = 10 */
(PID.TID 0000.0001)                 1.558107891862220E+11,      /* J = 11 */
(PID.TID 0000.0001)                 1.639228879220326E+11,      /* J = 12 */
(PID.TID 0000.0001)                 1.712363708253573E+11,      /* J = 13 */
(PID.TID 0000.0001)                 1.777156073426415E+11,      /* J = 14 */
(PID.TID 0000.0001)                 1.833290312848623E+11,      /* J = 15 */
(PID.TID 0000.0001)                 1.880492946148330E+11,      /* J = 16 */
(PID.TID 0000.0001)                 1.918534006840893E+11,      /* J = 17 */
(PID.TID 0000.0001)                 1.947228162702492E+11,      /* J = 18 */
(PID.TID 0000.0001)                 1.966435618690094E+11,      /* J = 19 */
(PID.TID 0000.0001)     2 @  1.976062798008856E+11,             /* J = 20: 21 */
(PID.TID 0000.0001)                 1.966435618690094E+11,      /* J = 22 */
(PID.TID 0000.0001)                 1.947228162702492E+11,      /* J = 23 */
(PID.TID 0000.0001)                 1.918534006840893E+11,      /* J = 24 */
(PID.TID 0000.0001)                 1.880492946148330E+11,      /* J = 25 */
(PID.TID 0000.0001)                 1.833290312848623E+11,      /* J = 26 */
(PID.TID 0000.0001)                 1.777156073426415E+11,      /* J = 27 */
(PID.TID 0000.0001)                 1.712363708253573E+11,      /* J = 28 */
(PID.TID 0000.0001)                 1.639228879220326E+11,      /* J = 29 */
(PID.TID 0000.0001)                 1.558107891862220E+11,      /* J = 30 */
(PID.TID 0000.0001)                 1.469395959475426E+11,      /* J = 31 */
(PID.TID 0000.0001)                 1.373525277677229E+11,      /* J = 32 */
(PID.TID 0000.0001)                 1.270962918792468E+11,      /* J = 33 */
(PID.TID 0000.0001)                 1.162208556324093E+11,      /* J = 34 */
(PID.TID 0000.0001)                 1.047792030594103E+11,      /* J = 35 */
(PID.TID 0000.0001)                 9.282707674147523E+10,      /* J = 36 */
(PID.TID 0000.0001)                 8.042270623659998E+10,      /* J = 37 */
(PID.TID 0000.0001)                 6.762652439100235E+10,      /* J = 38 */
(PID.TID 0000.0001)                 5.450087291636665E+10,      /* J = 39 */
(PID.TID 0000.0001)                 4.110969866729047E+10       /* J = 40 */
(PID.TID 0000.0001)     ;
(PID.TID 0000.0001) rAs =  /* rAs(:,1,:,1) ( units: m^2 ) */
(PID.TID 0000.0001)    90 @  3.433488626798250E+10              /* I =  1: 90 */
(PID.TID 0000.0001)     ;
(PID.TID 0000.0001) rAs =  /* rAs(1,:,1,:) ( units: m^2 ) */
(PID.TID 0000.0001)                 3.433488626798250E+10,      /* J =  1 */
(PID.TID 0000.0001)                 4.783442523123625E+10,      /* J =  2 */
(PID.TID 0000.0001)                 6.110091968306414E+10,      /* J =  3 */
(PID.TID 0000.0001)                 7.406973659603818E+10,      /* J =  4 */
(PID.TID 0000.0001)                 8.667769319778079E+10,      /* J =  5 */
(PID.TID 0000.0001)                 9.886336479107463E+10,      /* J =  6 */
(PID.TID 0000.0001)                 1.105673840088173E+11,      /* J =  7 */
(PID.TID 0000.0001)                 1.217327300458638E+11,      /* J =  8 */
(PID.TID 0000.0001)                 1.323050064586578E+11,      /* J =  9 */
(PID.TID 0000.0001)                 1.422327061792377E+11,      /* J = 10 */
(PID.TID 0000.0001)                 1.514674624524945E+11,      /* J = 11 */
(PID.TID 0000.0001)                 1.599642844741385E+11,      /* J = 12 */
(PID.TID 0000.0001)                 1.676817765813788E+11,      /* J = 13 */
(PID.TID 0000.0001)                 1.745823399284268E+11,      /* J = 14 */
(PID.TID 0000.0001)                 1.806323556642996E+11,      /* J = 15 */
(PID.TID 0000.0001)                 1.858023487204767E+11,      /* J = 16 */
(PID.TID 0000.0001)                 1.900671314104743E+11,      /* J = 17 */
(PID.TID 0000.0001)                 1.934059261417216E+11,      /* J = 18 */
(PID.TID 0000.0001)                 1.958024666419019E+11,      /* J = 19 */
(PID.TID 0000.0001)                 1.972450772065981E+11,      /* J = 20 */
(PID.TID 0000.0001)                 1.977267295821495E+11,      /* J = 21 */
(PID.TID 0000.0001)                 1.972450772065981E+11,      /* J = 22 */
(PID.TID 0000.0001)                 1.958024666419019E+11,      /* J = 23 */
(PID.TID 0000.0001)                 1.934059261417216E+11,      /* J = 24 */
(PID.TID 0000.0001)                 1.900671314104743E+11,      /* J = 25 */
(PID.TID 0000.0001)                 1.858023487204767E+11,      /* J = 26 */
(PID.TID 0000.0001)                 1.806323556642996E+11,      /* J = 27 */
(PID.TID 0000.0001)                 1.745823399284268E+11,      /* J = 28 */
(PID.TID 0000.0001)                 1.676817765813788E+11,      /* J = 29 */
(PID.TID 0000.0001)                 1.599642844741385E+11,      /* J = 30 */
(PID.TID 0000.0001)                 1.514674624524945E+11,      /* J = 31 */
(PID.TID 0000.0001)                 1.422327061792377E+11,      /* J = 32 */
(PID.TID 0000.0001)                 1.323050064586578E+11,      /* J = 33 */
(PID.TID 0000.0001)                 1.217327300458638E+11,      /* J = 34 */
(PID.TID 0000.0001)                 1.105673840088173E+11,      /* J = 35 */
(PID.TID 0000.0001)                 9.886336479107463E+10,      /* J = 36 */
(PID.TID 0000.0001)                 8.667769319778079E+10,      /* J = 37 */
(PID.TID 0000.0001)                 7.406973659603818E+10,      /* J = 38 */
(PID.TID 0000.0001)                 6.110091968306414E+10,      /* J = 39 */
(PID.TID 0000.0001)                 4.783442523123625E+10       /* J = 40 */
(PID.TID 0000.0001)     ;
(PID.TID 0000.0001) globalArea = /* Integrated horizontal Area (m^2) */
(PID.TID 0000.0001)                 3.450614146649756E+14
(PID.TID 0000.0001)     ;
(PID.TID 0000.0001) the_run_name = /* Name of this simulation */
(PID.TID 0000.0001)               'global_ocean.90x40x15'
(PID.TID 0000.0001)     ;
(PID.TID 0000.0001) // =======================================================
(PID.TID 0000.0001) // End of Model config. summary
(PID.TID 0000.0001) // =======================================================
(PID.TID 0000.0001) 
(PID.TID 0000.0001) == Packages configuration : Check & print summary ==
(PID.TID 0000.0001) 
(PID.TID 0000.0001) GMREDI_CHECK: #define GMREDI
(PID.TID 0000.0001) GM_AdvForm =     /* if FALSE => use SkewFlux Form */
(PID.TID 0000.0001)                   T
(PID.TID 0000.0001)     ;
(PID.TID 0000.0001) GM_InMomAsStress = /* if TRUE => apply as Eddy Stress */
(PID.TID 0000.0001)                   T
(PID.TID 0000.0001)     ;
(PID.TID 0000.0001) GM_AdvSeparate = /* Calc Bolus & Euler Adv. separately */
(PID.TID 0000.0001)                   F
(PID.TID 0000.0001)     ;
(PID.TID 0000.0001) GM_ExtraDiag =   /* Tensor Extra Diag (line 1&2) non 0 */
(PID.TID 0000.0001)                   T
(PID.TID 0000.0001)     ;
(PID.TID 0000.0001) GM_isopycK =    /* Background Isopyc. Diffusivity [m^2/s] */
(PID.TID 0000.0001)                 0.000000000000000E+00
(PID.TID 0000.0001)     ;
(PID.TID 0000.0001) GM_advec*K =    /* Backg. GM-Advec(=Bolus) Diffusivity [m^2/s] */
(PID.TID 0000.0001)                 0.000000000000000E+00
(PID.TID 0000.0001)     ;
(PID.TID 0000.0001) GM_skewflx*K =  /* Background GM_SkewFlx Diffusivity [m^2/s] */
(PID.TID 0000.0001)                 0.000000000000000E+00
(PID.TID 0000.0001)     ;
(PID.TID 0000.0001) GM_isoFac_calcK = /* Fraction of dynamic K added to Redi tensor */
(PID.TID 0000.0001)                 1.000000000000000E+00
(PID.TID 0000.0001)     ;
(PID.TID 0000.0001) GM_Kmin_horiz = /* Minimum Horizontal Diffusivity [m^2/s] */
(PID.TID 0000.0001)                 5.000000000000000E+01
(PID.TID 0000.0001)     ;
(PID.TID 0000.0001) GM_Visbeck_alpha = /* Visbeck alpha coeff. [-] */
(PID.TID 0000.0001)                 0.000000000000000E+00
(PID.TID 0000.0001)     ;
(PID.TID 0000.0001) GM_Small_Number =  /* epsilon used in slope calc */
(PID.TID 0000.0001)                 9.999999999999999E-21
(PID.TID 0000.0001)     ;
(PID.TID 0000.0001) GM_slopeSqCutoff = /* Slope^2 cut-off value */
(PID.TID 0000.0001)                 1.000000000000000E+48
(PID.TID 0000.0001)     ;
(PID.TID 0000.0001) GM_taper_scheme =  /* Type of Tapering/Clipping scheme */
(PID.TID 0000.0001)               'gkw91                                   '
(PID.TID 0000.0001)     ;
(PID.TID 0000.0001) GM_maxSlope =  /* Maximum Slope (Tapering/Clipping) */
(PID.TID 0000.0001)                 1.000000000000000E-02
(PID.TID 0000.0001)     ;
(PID.TID 0000.0001) GM_facTrL2dz = /* Minimum Trans.Layer Thick. (factor of dz) */
(PID.TID 0000.0001)                 1.000000000000000E+00
(PID.TID 0000.0001)     ;
(PID.TID 0000.0001) GM_facTrL2ML = /* Max.Trans.Layer Thick. (factor of MxL Depth)*/
(PID.TID 0000.0001)                 5.000000000000000E+00
(PID.TID 0000.0001)     ;
(PID.TID 0000.0001) GM_maxTransLay = /* Maximum Transition Layer Thickness [m] */
(PID.TID 0000.0001)                 5.000000000000000E+02
(PID.TID 0000.0001)     ;
(PID.TID 0000.0001) GM_UseBVP = /* if TRUE => use bvp a la Ferrari et al. (2010) */
(PID.TID 0000.0001)                   F
(PID.TID 0000.0001)     ;
(PID.TID 0000.0001) GM_BVP_ModeNumber = /* Vertical mode number for BVP wave speed */
(PID.TID 0000.0001)                       1
(PID.TID 0000.0001)     ;
(PID.TID 0000.0001) GM_BVP_cMin = /* Minimum wave speed for BVP [m/s] */
(PID.TID 0000.0001)                 1.000000000000000E-01
(PID.TID 0000.0001)     ;
(PID.TID 0000.0001) GM_useSubMeso = /* if TRUE => use Sub-Meso param. (B.Fox-Kemper) */
(PID.TID 0000.0001)                   F
(PID.TID 0000.0001)     ;
(PID.TID 0000.0001) subMeso_Ceff = /* efficiency coeff. of Mixed-Layer Eddies [-] */
(PID.TID 0000.0001)                 7.000000000000001E-02
(PID.TID 0000.0001)     ;
(PID.TID 0000.0001) subMeso_invTau = /* inverse of Sub-Meso mixing time-scale [/s] */
(PID.TID 0000.0001)                 2.000000000000000E-06
(PID.TID 0000.0001)     ;
(PID.TID 0000.0001) subMeso_LfMin = /* minimum length-scale "Lf" [m] */
(PID.TID 0000.0001)                 1.000000000000000E+03
(PID.TID 0000.0001)     ;
(PID.TID 0000.0001) subMeso_Lmax = /* maximum grid-scale length [m] */
(PID.TID 0000.0001)                 1.100000000000000E+05
(PID.TID 0000.0001)     ;
(PID.TID 0000.0001) GM_useLeithQG = /* if TRUE => add QG Leith viscosity to GMRedi tensor */
(PID.TID 0000.0001)                   F
(PID.TID 0000.0001)     ;
(PID.TID 0000.0001) GM_useBatesK3d = /* if TRUE => use BatesK3d for GM diffusivity */
(PID.TID 0000.0001)                   T
(PID.TID 0000.0001)     ;
(PID.TID 0000.0001) GM_Bates_NModes = /* Number of modes for expansion */
(PID.TID 0000.0001)                       6
(PID.TID 0000.0001)     ;
(PID.TID 0000.0001) GAD_CHECK: #define ALLOW_GENERIC_ADVDIFF
(PID.TID 0000.0001) // =======================================================
(PID.TID 0000.0001) // Check Model config. (CONFIG_CHECK):
(PID.TID 0000.0001) // CONFIG_CHECK : Normal End
(PID.TID 0000.0001) // =======================================================
(PID.TID 0000.0001) 
(PID.TID 0000.0001)  MDS_READ_FIELD: opening global file: lev_t.bin
(PID.TID 0000.0001)  MDS_READ_FIELD: opening global file: lev_s.bin
(PID.TID 0000.0001) Start initial hydrostatic pressure computation
(PID.TID 0000.0001) Iteration   1, RMS-difference =  5.164712520153E+01
(PID.TID 0000.0001) Iteration   2, RMS-difference =  3.065055575177E-01
(PID.TID 0000.0001) Iteration   3, RMS-difference =  2.571262909926E-03
(PID.TID 0000.0001) Iteration   4, RMS-difference =  1.558331341330E-05
(PID.TID 0000.0001) Iteration   5, RMS-difference =  7.264394898002E-08
(PID.TID 0000.0001) Iteration   6, RMS-difference =  2.796362522389E-10
(PID.TID 0000.0001) Iteration   7, RMS-difference =  9.925663589994E-13
(PID.TID 0000.0001) Iteration   8, RMS-difference =  2.203928539576E-14
(PID.TID 0000.0001) Iteration   9, RMS-difference =  0.000000000000E+00
(PID.TID 0000.0001) Initial hydrostatic pressure converged.
(PID.TID 0000.0001) 
(PID.TID 0000.0001)  MDS_READ_FIELD: opening global file: trenberth_taux.bin
(PID.TID 0000.0001)  MDS_READ_FIELD: opening global file: trenberth_tauy.bin
(PID.TID 0000.0001)  MDS_READ_FIELD: opening global file: ncep_qnet.bin
(PID.TID 0000.0001)  MDS_READ_FIELD: opening global file: ncep_emp.bin
(PID.TID 0000.0001)  MDS_READ_FIELD: opening global file: lev_sst.bin
(PID.TID 0000.0001)  MDS_READ_FIELD: opening global file: lev_sss.bin
(PID.TID 0000.0001)  write diagnostics summary to file ioUnit:      6
Iter.Nb:         0 ; Time(s):  0.0000000000000E+00
------------------------------------------------------------------------
2D/3D diagnostics: Number of lists:     3
------------------------------------------------------------------------
listId=    1 ; file name: surfDiag
 nFlds, nActive,       freq     &     phase        , nLev               
    5  |    5  |    864000.000000         0.000000 |   1
 levels:   1
 diag# | name   |   ipt  |  iMate | kLev|   count |   mate.C|           
    23 |ETAN    |      1 |      0 |   1 |       0 |
    24 |ETANSQ  |      2 |      0 |   1 |       0 |
    25 |DETADT2 |      3 |      0 |   1 |       0 |
    73 |PHIBOT  |      4 |      0 |   1 |       0 |
    74 |PHIBOTSQ|      5 |      0 |   1 |       0 |
------------------------------------------------------------------------
listId=    2 ; file name: dynDiag
 nFlds, nActive,       freq     &     phase        , nLev               
    6  |    6  |    864000.000000         0.000000 |  15
 levels:   1   2   3   4   5   6   7   8   9  10  11  12  13  14  15
 diag# | name   |   ipt  |  iMate | kLev|   count |   mate.C|           
    45 |UVELMASS|      6 |     21 |  15 |       0 |       0 |
    46 |VVELMASS|     21 |      6 |  15 |       0 |       0 |
    32 |WVEL    |     36 |      0 |  15 |       0 |
    26 |THETA   |     51 |      0 |  15 |       0 |
    27 |SALT    |     66 |      0 |  15 |       0 |
    38 |WVELSQ  |     81 |      0 |  15 |       0 |
------------------------------------------------------------------------
listId=    3 ; file name: oceDiag
 nFlds, nActive,       freq     &     phase        , nLev               
    6  |    6  |    864000.000000         0.000000 |  15
 levels:   1   2   3   4   5   6   7   8   9  10  11  12  13  14  15
 diag# | name   |   ipt  |  iMate | kLev|   count |   mate.C|           
    64 |RHOAnoma|     96 |      0 |  15 |       0 |
    78 |DRHODR  |    111 |      0 |  15 |       0 |
    79 |CONVADJ |    126 |      0 |  15 |       0 |
   209 |GM_Kwx  |    141 |    156 |  15 |       0 |       0 |
   210 |GM_Kwy  |    156 |    141 |  15 |       0 |       0 |
   211 |GM_Kwz  |    171 |      0 |  15 |       0 |
------------------------------------------------------------------------
Global & Regional Statistics diagnostics: Number of lists:     2
------------------------------------------------------------------------
listId=   1 ; file name: dynStDiag
 nFlds, nActive,       freq     &     phase        |                    
    9  |    9  |   2592000.000000         0.000000 |
 Regions:   0
 diag# | name   |   ipt  |  iMate |    Volume   |   mate-Vol. |         
    23 |ETAN    |      1 |      0 | 0.00000E+00 |
    24 |ETANSQ  |      2 |      0 | 0.00000E+00 |
    25 |DETADT2 |      3 |      0 | 0.00000E+00 |
    30 |UVEL    |      4 |      0 | 0.00000E+00 |
    31 |VVEL    |     19 |      0 | 0.00000E+00 |
    32 |WVEL    |     34 |      0 | 0.00000E+00 |
    26 |THETA   |     49 |      0 | 0.00000E+00 |
    27 |SALT    |     64 |      0 | 0.00000E+00 |
    38 |WVELSQ  |     79 |      0 | 0.00000E+00 |
------------------------------------------------------------------------
listId=   2 ; file name: oceStDiag
 nFlds, nActive,       freq     &     phase        |                    
    3  |    3  |   2592000.000000         0.000000 |
 Regions:   0
 diag# | name   |   ipt  |  iMate |    Volume   |   mate-Vol. |         
    64 |RHOAnoma|     94 |      0 | 0.00000E+00 |
    78 |DRHODR  |    109 |      0 | 0.00000E+00 |
    79 |CONVADJ |    124 |      0 | 0.00000E+00 |
------------------------------------------------------------------------
(PID.TID 0000.0001) // =======================================================
(PID.TID 0000.0001) // Model current state
(PID.TID 0000.0001) // =======================================================
(PID.TID 0000.0001) 
(PID.TID 0000.0001) // =======================================================
(PID.TID 0000.0001) // Begin MONITOR dynamic field statistics
(PID.TID 0000.0001) // =======================================================
(PID.TID 0000.0001) %MON time_tsnumber                =                     0
(PID.TID 0000.0001) %MON time_secondsf                =   0.0000000000000E+00
(PID.TID 0000.0001) %MON dynstat_eta_max              =   0.0000000000000E+00
(PID.TID 0000.0001) %MON dynstat_eta_min              =   0.0000000000000E+00
(PID.TID 0000.0001) %MON dynstat_eta_mean             =   0.0000000000000E+00
(PID.TID 0000.0001) %MON dynstat_eta_sd               =   0.0000000000000E+00
(PID.TID 0000.0001) %MON dynstat_eta_del2             =   0.0000000000000E+00
(PID.TID 0000.0001) %MON dynstat_uvel_max             =   0.0000000000000E+00
(PID.TID 0000.0001) %MON dynstat_uvel_min             =   0.0000000000000E+00
(PID.TID 0000.0001) %MON dynstat_uvel_mean            =   0.0000000000000E+00
(PID.TID 0000.0001) %MON dynstat_uvel_sd              =   0.0000000000000E+00
(PID.TID 0000.0001) %MON dynstat_uvel_del2            =   0.0000000000000E+00
(PID.TID 0000.0001) %MON dynstat_vvel_max             =   0.0000000000000E+00
(PID.TID 0000.0001) %MON dynstat_vvel_min             =   0.0000000000000E+00
(PID.TID 0000.0001) %MON dynstat_vvel_mean            =   0.0000000000000E+00
(PID.TID 0000.0001) %MON dynstat_vvel_sd              =   0.0000000000000E+00
(PID.TID 0000.0001) %MON dynstat_vvel_del2            =   0.0000000000000E+00
(PID.TID 0000.0001) %MON dynstat_wvel_max             =   0.0000000000000E+00
(PID.TID 0000.0001) %MON dynstat_wvel_min             =   0.0000000000000E+00
(PID.TID 0000.0001) %MON dynstat_wvel_mean            =   0.0000000000000E+00
(PID.TID 0000.0001) %MON dynstat_wvel_sd              =   0.0000000000000E+00
(PID.TID 0000.0001) %MON dynstat_wvel_del2            =   0.0000000000000E+00
(PID.TID 0000.0001) %MON dynstat_theta_max            =   2.9733388900757E+01
(PID.TID 0000.0001) %MON dynstat_theta_min            =  -1.9000000000000E+00
(PID.TID 0000.0001) %MON dynstat_theta_mean           =   3.6197074666131E+00
(PID.TID 0000.0001) %MON dynstat_theta_sd             =   4.4174614518569E+00
(PID.TID 0000.0001) %MON dynstat_theta_del2           =   5.6229722638211E-03
(PID.TID 0000.0001) %MON dynstat_salt_max             =   3.7475627899170E+01
(PID.TID 0000.0001) %MON dynstat_salt_min             =   2.9752769470215E+01
(PID.TID 0000.0001) %MON dynstat_salt_mean            =   3.4718006161477E+01
(PID.TID 0000.0001) %MON dynstat_salt_sd              =   2.9628819587991E-01
(PID.TID 0000.0001) %MON dynstat_salt_del2            =   1.0127003139695E-03
(PID.TID 0000.0001) %MON forcing_qnet_max             =   4.4161361694336E+02
(PID.TID 0000.0001) %MON forcing_qnet_min             =  -1.8132531738281E+02
(PID.TID 0000.0001) %MON forcing_qnet_mean            =  -1.6512526001044E+01
(PID.TID 0000.0001) %MON forcing_qnet_sd              =   1.0987288293460E+02
(PID.TID 0000.0001) %MON forcing_qnet_del2            =   1.0245701543512E+00
(PID.TID 0000.0001) %MON forcing_qsw_max              =   0.0000000000000E+00
(PID.TID 0000.0001) %MON forcing_qsw_min              =   0.0000000000000E+00
(PID.TID 0000.0001) %MON forcing_qsw_mean             =   0.0000000000000E+00
(PID.TID 0000.0001) %MON forcing_qsw_sd               =   0.0000000000000E+00
(PID.TID 0000.0001) %MON forcing_qsw_del2             =   0.0000000000000E+00
(PID.TID 0000.0001) %MON forcing_empmr_max            =   8.2174238968946E-05
(PID.TID 0000.0001) %MON forcing_empmr_min            =  -7.6155956207913E-05
(PID.TID 0000.0001) %MON forcing_empmr_mean           =   9.2293706211062E-07
(PID.TID 0000.0001) %MON forcing_empmr_sd             =   2.8800050217957E-05
(PID.TID 0000.0001) %MON forcing_empmr_del2           =   3.6757632549621E-07
(PID.TID 0000.0001) %MON forcing_fu_max               =   2.7877888083458E-01
(PID.TID 0000.0001) %MON forcing_fu_min               =  -1.7088057100773E-01
(PID.TID 0000.0001) %MON forcing_fu_mean              =   1.6001735152566E-02
(PID.TID 0000.0001) %MON forcing_fu_sd                =   9.1062350670783E-02
(PID.TID 0000.0001) %MON forcing_fu_del2              =   7.2483493833855E-04
(PID.TID 0000.0001) %MON forcing_fv_max               =   2.3312132060528E-01
(PID.TID 0000.0001) %MON forcing_fv_min               =  -1.7813690006733E-01
(PID.TID 0000.0001) %MON forcing_fv_mean              =  -5.2588977395051E-03
(PID.TID 0000.0001) %MON forcing_fv_sd                =   4.8248606070107E-02
(PID.TID 0000.0001) %MON forcing_fv_del2              =   4.9948324922575E-04
(PID.TID 0000.0001) %MON trAdv_CFL_u_max              =   0.0000000000000E+00
(PID.TID 0000.0001) %MON trAdv_CFL_v_max              =   0.0000000000000E+00
(PID.TID 0000.0001) %MON trAdv_CFL_w_max              =   0.0000000000000E+00
(PID.TID 0000.0001) %MON advcfl_uvel_max              =   0.0000000000000E+00
(PID.TID 0000.0001) %MON advcfl_vvel_max              =   0.0000000000000E+00
(PID.TID 0000.0001) %MON advcfl_wvel_max              =   0.0000000000000E+00
(PID.TID 0000.0001) %MON advcfl_W_hf_max              =   0.0000000000000E+00
(PID.TID 0000.0001) %MON pe_b_mean                    =   0.0000000000000E+00
(PID.TID 0000.0001) %MON ke_max                       =   0.0000000000000E+00
(PID.TID 0000.0001) %MON ke_mean                      =   0.0000000000000E+00
(PID.TID 0000.0001) %MON ke_vol                       =   1.3226782436723E+18
(PID.TID 0000.0001) %MON vort_r_min                   =   0.0000000000000E+00
(PID.TID 0000.0001) %MON vort_r_max                   =   0.0000000000000E+00
(PID.TID 0000.0001) %MON vort_a_mean                  =  -2.5274807396950E-05
(PID.TID 0000.0001) %MON vort_a_sd                    =   7.3604350271442E-05
(PID.TID 0000.0001) %MON vort_p_mean                  =  -3.1845655798840E-05
(PID.TID 0000.0001) %MON vort_p_sd                    =   1.3162570071704E-04
(PID.TID 0000.0001) %MON surfExpan_theta_mean         =   0.0000000000000E+00
(PID.TID 0000.0001) %MON surfExpan_salt_mean          =   0.0000000000000E+00
(PID.TID 0000.0001) // =======================================================
(PID.TID 0000.0001) // End MONITOR dynamic field statistics
(PID.TID 0000.0001) // =======================================================
 EXTERNAL_FIELDS_LOAD,         0 : iP,iLd,i0,i1=   12    0   12    1 ; Wght=  0.5000000000  0.5000000000
 EXTERNAL_FIELDS_LOAD, it=         0 : Reading new data, i0,i1=   12    1 (prev=   12    0 )
(PID.TID 0000.0001)  MDS_READ_FIELD: opening global file: trenberth_taux.bin
(PID.TID 0000.0001)  MDS_READ_FIELD: opening global file: trenberth_taux.bin
(PID.TID 0000.0001)  MDS_READ_FIELD: opening global file: trenberth_tauy.bin
(PID.TID 0000.0001)  MDS_READ_FIELD: opening global file: trenberth_tauy.bin
(PID.TID 0000.0001)  MDS_READ_FIELD: opening global file: ncep_qnet.bin
(PID.TID 0000.0001)  MDS_READ_FIELD: opening global file: ncep_qnet.bin
(PID.TID 0000.0001)  MDS_READ_FIELD: opening global file: ncep_emp.bin
(PID.TID 0000.0001)  MDS_READ_FIELD: opening global file: ncep_emp.bin
(PID.TID 0000.0001)  MDS_READ_FIELD: opening global file: lev_sst.bin
(PID.TID 0000.0001)  MDS_READ_FIELD: opening global file: lev_sst.bin
(PID.TID 0000.0001)  MDS_READ_FIELD: opening global file: lev_sss.bin
(PID.TID 0000.0001)  MDS_READ_FIELD: opening global file: lev_sss.bin
(PID.TID 0000.0001) SOLVE_FOR_PRESSURE: putPmEinXvector =    F
 cg2d: Sum(rhs),rhsMax =   3.67591829168393E-03  2.56950143267917E+00
(PID.TID 0000.0001)      cg2d_init_res =   6.15969088495369E+00
(PID.TID 0000.0001)      cg2d_iters(min,last) =      -1     142
(PID.TID 0000.0001)      cg2d_last_res =   9.15031803252077E-14
(PID.TID 0000.0001) // =======================================================
(PID.TID 0000.0001) // Begin MONITOR dynamic field statistics
(PID.TID 0000.0001) // =======================================================
(PID.TID 0000.0001) %MON time_tsnumber                =                     1
(PID.TID 0000.0001) %MON time_secondsf                =   8.6400000000000E+04
(PID.TID 0000.0001) %MON dynstat_eta_max              =   6.6379351160100E-01
(PID.TID 0000.0001) %MON dynstat_eta_min              =  -8.1361300215674E-01
(PID.TID 0000.0001) %MON dynstat_eta_mean             =  -6.4811745051382E-05
(PID.TID 0000.0001) %MON dynstat_eta_sd               =   2.6150815675587E-01
(PID.TID 0000.0001) %MON dynstat_eta_del2             =   2.5421386549167E-03
(PID.TID 0000.0001) %MON dynstat_uvel_max             =   1.5129685984542E-02
(PID.TID 0000.0001) %MON dynstat_uvel_min             =  -1.6965193862067E-02
(PID.TID 0000.0001) %MON dynstat_uvel_mean            =  -5.1745467191398E-04
(PID.TID 0000.0001) %MON dynstat_uvel_sd              =   1.2680342090763E-03
(PID.TID 0000.0001) %MON dynstat_uvel_del2            =   1.8753133810391E-05
(PID.TID 0000.0001) %MON dynstat_vvel_max             =   1.8235807074029E-02
(PID.TID 0000.0001) %MON dynstat_vvel_min             =  -2.1416477614513E-02
(PID.TID 0000.0001) %MON dynstat_vvel_mean            =   7.3568468890886E-04
(PID.TID 0000.0001) %MON dynstat_vvel_sd              =   2.5054224114479E-03
(PID.TID 0000.0001) %MON dynstat_vvel_del2            =   2.3347101154764E-05
(PID.TID 0000.0001) %MON dynstat_wvel_max             =   6.3463062352325E-05
(PID.TID 0000.0001) %MON dynstat_wvel_min             =  -5.5525837366268E-05
(PID.TID 0000.0001) %MON dynstat_wvel_mean            =  -3.6947689214721E-08
(PID.TID 0000.0001) %MON dynstat_wvel_sd              =   6.5029438102793E-06
(PID.TID 0000.0001) %MON dynstat_wvel_del2            =   9.2636831152799E-08
(PID.TID 0000.0001) %MON dynstat_theta_max            =   2.9728259248109E+01
(PID.TID 0000.0001) %MON dynstat_theta_min            =  -1.9003219474105E+00
(PID.TID 0000.0001) %MON dynstat_theta_mean           =   3.6197724302515E+00
(PID.TID 0000.0001) %MON dynstat_theta_sd             =   4.4171727219657E+00
(PID.TID 0000.0001) %MON dynstat_theta_del2           =   5.6226606639741E-03
(PID.TID 0000.0001) %MON dynstat_salt_max             =   3.7463785423825E+01
(PID.TID 0000.0001) %MON dynstat_salt_min             =   2.9754631576469E+01
(PID.TID 0000.0001) %MON dynstat_salt_mean            =   3.4718005931612E+01
(PID.TID 0000.0001) %MON dynstat_salt_sd              =   2.9613638387481E-01
(PID.TID 0000.0001) %MON dynstat_salt_del2            =   1.0137115524298E-03
(PID.TID 0000.0001) %MON forcing_qnet_max             =   4.2589080810547E+02
(PID.TID 0000.0001) %MON forcing_qnet_min             =  -1.8702698516846E+02
(PID.TID 0000.0001) %MON forcing_qnet_mean            =  -1.6700205338390E+01
(PID.TID 0000.0001) %MON forcing_qnet_sd              =   1.1285666794876E+02
(PID.TID 0000.0001) %MON forcing_qnet_del2            =   9.9079877721394E-01
(PID.TID 0000.0001) %MON forcing_qsw_max              =   0.0000000000000E+00
(PID.TID 0000.0001) %MON forcing_qsw_min              =   0.0000000000000E+00
(PID.TID 0000.0001) %MON forcing_qsw_mean             =   0.0000000000000E+00
(PID.TID 0000.0001) %MON forcing_qsw_sd               =   0.0000000000000E+00
(PID.TID 0000.0001) %MON forcing_qsw_del2             =   0.0000000000000E+00
(PID.TID 0000.0001) %MON forcing_empmr_max            =   8.3243762105667E-05
(PID.TID 0000.0001) %MON forcing_empmr_min            =  -7.4169506092403E-05
(PID.TID 0000.0001) %MON forcing_empmr_mean           =   7.7639069592805E-07
(PID.TID 0000.0001) %MON forcing_empmr_sd             =   2.7794934142646E-05
(PID.TID 0000.0001) %MON forcing_empmr_del2           =   3.6436962197032E-07
(PID.TID 0000.0001) %MON forcing_fu_max               =   2.7488999068737E-01
(PID.TID 0000.0001) %MON forcing_fu_min               =  -1.6014087945223E-01
(PID.TID 0000.0001) %MON forcing_fu_mean              =   1.6117127468124E-02
(PID.TID 0000.0001) %MON forcing_fu_sd                =   9.0153154829689E-02
(PID.TID 0000.0001) %MON forcing_fu_del2              =   6.5365667764058E-04
(PID.TID 0000.0001) %MON forcing_fv_max               =   2.0835298299789E-01
(PID.TID 0000.0001) %MON forcing_fv_min               =  -1.8690676242113E-01
(PID.TID 0000.0001) %MON forcing_fv_mean              =  -6.3653356424172E-03
(PID.TID 0000.0001) %MON forcing_fv_sd                =   4.5157892194461E-02
(PID.TID 0000.0001) %MON forcing_fv_del2              =   4.4595114894327E-04
(PID.TID 0000.0001) %MON trAdv_CFL_u_max              =   0.0000000000000E+00
(PID.TID 0000.0001) %MON trAdv_CFL_v_max              =   0.0000000000000E+00
(PID.TID 0000.0001) %MON trAdv_CFL_w_max              =   0.0000000000000E+00
(PID.TID 0000.0001) %MON advcfl_uvel_max              =   7.6106864467594E-03
(PID.TID 0000.0001) %MON advcfl_vvel_max              =   4.1608781214940E-03
(PID.TID 0000.0001) %MON advcfl_wvel_max              =   2.1904135602154E-02
(PID.TID 0000.0001) %MON advcfl_W_hf_max              =   2.5815588388253E-02
(PID.TID 0000.0001) %MON pe_b_mean                    =   8.7508795481285E-05
(PID.TID 0000.0001) %MON ke_max                       =   1.9795569475726E-04
(PID.TID 0000.0001) %MON ke_mean                      =   3.9132120648658E-06
(PID.TID 0000.0001) %MON ke_vol                       =   1.3226782436723E+18
(PID.TID 0000.0001) %MON vort_r_min                   =  -8.9746123090013E-08
(PID.TID 0000.0001) %MON vort_r_max                   =   9.0045926623809E-08
(PID.TID 0000.0001) %MON vort_a_mean                  =  -2.5274807342295E-05
(PID.TID 0000.0001) %MON vort_a_sd                    =   7.3604246649079E-05
(PID.TID 0000.0001) %MON vort_p_mean                  =  -3.1845655729977E-05
(PID.TID 0000.0001) %MON vort_p_sd                    =   1.3162543798019E-04
(PID.TID 0000.0001) %MON surfExpan_theta_mean         =   4.1146188128188E-06
(PID.TID 0000.0001) %MON surfExpan_salt_mean          =   1.7418065146031E-07
(PID.TID 0000.0001) // =======================================================
(PID.TID 0000.0001) // End MONITOR dynamic field statistics
(PID.TID 0000.0001) // =======================================================
 EXTERNAL_FIELDS_LOAD,         1 : iP,iLd,i0,i1=   12    1   12    1 ; Wght=  0.4666666667  0.5333333333
 cg2d: Sum(rhs),rhsMax =   7.16813586183551E-03  2.65193213408884E+00
(PID.TID 0000.0001)      cg2d_init_res =   5.62251143887446E-01
(PID.TID 0000.0001)      cg2d_iters(min,last) =      -1     139
(PID.TID 0000.0001)      cg2d_last_res =   8.29535289397693E-14
(PID.TID 0000.0001) // =======================================================
(PID.TID 0000.0001) // Begin MONITOR dynamic field statistics
(PID.TID 0000.0001) // =======================================================
(PID.TID 0000.0001) %MON time_tsnumber                =                     2
(PID.TID 0000.0001) %MON time_secondsf                =   1.7280000000000E+05
(PID.TID 0000.0001) %MON dynstat_eta_max              =   9.0313201408371E-01
(PID.TID 0000.0001) %MON dynstat_eta_min              =  -1.3152821062703E+00
(PID.TID 0000.0001) %MON dynstat_eta_mean             =  -1.3043905248849E-04
(PID.TID 0000.0001) %MON dynstat_eta_sd               =   4.4265808301676E-01
(PID.TID 0000.0001) %MON dynstat_eta_del2             =   2.6033374482507E-03
(PID.TID 0000.0001) %MON dynstat_uvel_max             =   3.1664573940932E-02
(PID.TID 0000.0001) %MON dynstat_uvel_min             =  -4.2003689709766E-02
(PID.TID 0000.0001) %MON dynstat_uvel_mean            =  -8.3926681502034E-04
(PID.TID 0000.0001) %MON dynstat_uvel_sd              =   2.4071060586250E-03
(PID.TID 0000.0001) %MON dynstat_uvel_del2            =   3.6260695392005E-05
(PID.TID 0000.0001) %MON dynstat_vvel_max             =   4.4702328464518E-02
(PID.TID 0000.0001) %MON dynstat_vvel_min             =  -6.2565812532143E-02
(PID.TID 0000.0001) %MON dynstat_vvel_mean            =   9.2476234507487E-04
(PID.TID 0000.0001) %MON dynstat_vvel_sd              =   4.2882366226146E-03
(PID.TID 0000.0001) %MON dynstat_vvel_del2            =   4.6111561563683E-05
(PID.TID 0000.0001) %MON dynstat_wvel_max             =   1.0838722036122E-04
(PID.TID 0000.0001) %MON dynstat_wvel_min             =  -9.7054720510930E-05
(PID.TID 0000.0001) %MON dynstat_wvel_mean            =  -1.9097292626887E-08
(PID.TID 0000.0001) %MON dynstat_wvel_sd              =   1.1888749135362E-05
(PID.TID 0000.0001) %MON dynstat_wvel_del2            =   1.6952041823942E-07
(PID.TID 0000.0001) %MON dynstat_theta_max            =   2.9722816655378E+01
(PID.TID 0000.0001) %MON dynstat_theta_min            =  -1.9010069650174E+00
(PID.TID 0000.0001) %MON dynstat_theta_mean           =   3.6197821317186E+00
(PID.TID 0000.0001) %MON dynstat_theta_sd             =   4.4170085998133E+00
(PID.TID 0000.0001) %MON dynstat_theta_del2           =   5.6080536285734E-03
(PID.TID 0000.0001) %MON dynstat_salt_max             =   3.7453385091336E+01
(PID.TID 0000.0001) %MON dynstat_salt_min             =   2.9755263556884E+01
(PID.TID 0000.0001) %MON dynstat_salt_mean            =   3.4718004518366E+01
(PID.TID 0000.0001) %MON dynstat_salt_sd              =   2.9607864241114E-01
(PID.TID 0000.0001) %MON dynstat_salt_del2            =   1.0186906304573E-03
(PID.TID 0000.0001) %MON forcing_qnet_max             =   4.2693899536133E+02
(PID.TID 0000.0001) %MON forcing_qnet_min             =  -1.8655982259115E+02
(PID.TID 0000.0001) %MON forcing_qnet_mean            =  -1.6687693382567E+01
(PID.TID 0000.0001) %MON forcing_qnet_sd              =   1.1263946608433E+02
(PID.TID 0000.0001) %MON forcing_qnet_del2            =   9.9183674388333E-01
(PID.TID 0000.0001) %MON forcing_qsw_max              =   0.0000000000000E+00
(PID.TID 0000.0001) %MON forcing_qsw_min              =   0.0000000000000E+00
(PID.TID 0000.0001) %MON forcing_qsw_mean             =   0.0000000000000E+00
(PID.TID 0000.0001) %MON forcing_qsw_sd               =   0.0000000000000E+00
(PID.TID 0000.0001) %MON forcing_qsw_del2             =   0.0000000000000E+00
(PID.TID 0000.0001) %MON forcing_empmr_max            =   8.2987928351486E-05
(PID.TID 0000.0001) %MON forcing_empmr_min            =  -7.3906322484163E-05
(PID.TID 0000.0001) %MON forcing_empmr_mean           =   7.8616045367356E-07
(PID.TID 0000.0001) %MON forcing_empmr_sd             =   2.7832317986922E-05
(PID.TID 0000.0001) %MON forcing_empmr_del2           =   3.6378785899555E-07
(PID.TID 0000.0001) %MON forcing_fu_max               =   2.7403144240379E-01
(PID.TID 0000.0001) %MON forcing_fu_min               =  -1.5949268937111E-01
(PID.TID 0000.0001) %MON forcing_fu_mean              =   1.6109434647086E-02
(PID.TID 0000.0001) %MON forcing_fu_sd                =   9.0138031840955E-02
(PID.TID 0000.0001) %MON forcing_fu_del2              =   6.5488191036968E-04
(PID.TID 0000.0001) %MON forcing_fv_max               =   2.0882657567660E-01
(PID.TID 0000.0001) %MON forcing_fv_min               =  -1.8632210493088E-01
(PID.TID 0000.0001) %MON forcing_fv_mean              =  -6.2915731155564E-03
(PID.TID 0000.0001) %MON forcing_fv_sd                =   4.5261152700224E-02
(PID.TID 0000.0001) %MON forcing_fv_del2              =   4.4588571962377E-04
(PID.TID 0000.0001) %MON trAdv_CFL_u_max              =   1.0253748153421E-02
(PID.TID 0000.0001) %MON trAdv_CFL_v_max              =   5.1326311151428E-03
(PID.TID 0000.0001) %MON trAdv_CFL_w_max              =   1.9022012496607E-02
(PID.TID 0000.0001) %MON advcfl_uvel_max              =   2.1490965811346E-02
(PID.TID 0000.0001) %MON advcfl_vvel_max              =   1.2155533940001E-02
(PID.TID 0000.0001) %MON advcfl_wvel_max              =   3.4534769865458E-02
(PID.TID 0000.0001) %MON advcfl_W_hf_max              =   4.0707207610498E-02
(PID.TID 0000.0001) %MON pe_b_mean                    =   2.5073677929865E-04
(PID.TID 0000.0001) %MON ke_max                       =   2.1119128307457E-03
(PID.TID 0000.0001) %MON ke_mean                      =   1.1591935896751E-05
(PID.TID 0000.0001) %MON ke_vol                       =   1.3226782213082E+18
(PID.TID 0000.0001) %MON vort_r_min                   =  -3.3204015592220E-07
(PID.TID 0000.0001) %MON vort_r_max                   =   2.6241279600299E-07
(PID.TID 0000.0001) %MON vort_a_mean                  =  -2.5274807293205E-05
(PID.TID 0000.0001) %MON vort_a_sd                    =   7.3604185644270E-05
(PID.TID 0000.0001) %MON vort_p_mean                  =  -3.1845642660608E-05
(PID.TID 0000.0001) %MON vort_p_sd                    =   1.3162954556151E-04
(PID.TID 0000.0001) %MON surfExpan_theta_mean         =   3.8469057147529E-06
(PID.TID 0000.0001) %MON surfExpan_salt_mean          =   1.9402714072754E-07
(PID.TID 0000.0001) // =======================================================
(PID.TID 0000.0001) // End MONITOR dynamic field statistics
(PID.TID 0000.0001) // =======================================================
 EXTERNAL_FIELDS_LOAD,         2 : iP,iLd,i0,i1=   12    1   12    1 ; Wght=  0.4333333333  0.5666666667
 cg2d: Sum(rhs),rhsMax =   1.17830971018648E-02  2.43504719530063E+00
(PID.TID 0000.0001)      cg2d_init_res =   4.74158928933647E-01
(PID.TID 0000.0001)      cg2d_iters(min,last) =      -1     138
(PID.TID 0000.0001)      cg2d_last_res =   9.29799732860208E-14
(PID.TID 0000.0001) // =======================================================
(PID.TID 0000.0001) // Begin MONITOR dynamic field statistics
(PID.TID 0000.0001) // =======================================================
(PID.TID 0000.0001) %MON time_tsnumber                =                     3
(PID.TID 0000.0001) %MON time_secondsf                =   2.5920000000000E+05
(PID.TID 0000.0001) %MON dynstat_eta_max              =   8.9383638884377E-01
(PID.TID 0000.0001) %MON dynstat_eta_min              =  -1.5755398538757E+00
(PID.TID 0000.0001) %MON dynstat_eta_mean             =  -1.9688192231129E-04
(PID.TID 0000.0001) %MON dynstat_eta_sd               =   5.3006725219829E-01
(PID.TID 0000.0001) %MON dynstat_eta_del2             =   2.4661520897884E-03
(PID.TID 0000.0001) %MON dynstat_uvel_max             =   4.8819984395924E-02
(PID.TID 0000.0001) %MON dynstat_uvel_min             =  -4.4824963420169E-02
(PID.TID 0000.0001) %MON dynstat_uvel_mean            =  -9.2249255683459E-04
(PID.TID 0000.0001) %MON dynstat_uvel_sd              =   3.4223061941524E-03
(PID.TID 0000.0001) %MON dynstat_uvel_del2            =   4.8970017687484E-05
(PID.TID 0000.0001) %MON dynstat_vvel_max             =   5.1072234500326E-02
(PID.TID 0000.0001) %MON dynstat_vvel_min             =  -6.5144972751232E-02
(PID.TID 0000.0001) %MON dynstat_vvel_mean            =   8.1324755498483E-04
(PID.TID 0000.0001) %MON dynstat_vvel_sd              =   5.8973489920508E-03
(PID.TID 0000.0001) %MON dynstat_vvel_del2            =   6.3393106937557E-05
(PID.TID 0000.0001) %MON dynstat_wvel_max             =   1.4780776993987E-04
(PID.TID 0000.0001) %MON dynstat_wvel_min             =  -1.2899001972708E-04
(PID.TID 0000.0001) %MON dynstat_wvel_mean            =  -3.9627102466070E-09
(PID.TID 0000.0001) %MON dynstat_wvel_sd              =   1.6334715487077E-05
(PID.TID 0000.0001) %MON dynstat_wvel_del2            =   2.2999222912990E-07
(PID.TID 0000.0001) %MON dynstat_theta_max            =   2.9716839455832E+01
(PID.TID 0000.0001) %MON dynstat_theta_min            =  -1.9015825644587E+00
(PID.TID 0000.0001) %MON dynstat_theta_mean           =   3.6198511413005E+00
(PID.TID 0000.0001) %MON dynstat_theta_sd             =   4.4169590004215E+00
(PID.TID 0000.0001) %MON dynstat_theta_del2           =   5.5576057777667E-03
(PID.TID 0000.0001) %MON dynstat_salt_max             =   3.7443915425368E+01
(PID.TID 0000.0001) %MON dynstat_salt_min             =   2.9755307001402E+01
(PID.TID 0000.0001) %MON dynstat_salt_mean            =   3.4718004659929E+01
(PID.TID 0000.0001) %MON dynstat_salt_sd              =   2.9606903388482E-01
(PID.TID 0000.0001) %MON dynstat_salt_del2            =   1.0170705870311E-03
(PID.TID 0000.0001) %MON forcing_qnet_max             =   4.2798718261719E+02
(PID.TID 0000.0001) %MON forcing_qnet_min             =  -1.8609266001383E+02
(PID.TID 0000.0001) %MON forcing_qnet_mean            =  -1.6675181426744E+01
(PID.TID 0000.0001) %MON forcing_qnet_sd              =   1.1242481361476E+02
(PID.TID 0000.0001) %MON forcing_qnet_del2            =   9.9305199082959E-01
(PID.TID 0000.0001) %MON forcing_qsw_max              =   0.0000000000000E+00
(PID.TID 0000.0001) %MON forcing_qsw_min              =   0.0000000000000E+00
(PID.TID 0000.0001) %MON forcing_qsw_mean             =   0.0000000000000E+00
(PID.TID 0000.0001) %MON forcing_qsw_sd               =   0.0000000000000E+00
(PID.TID 0000.0001) %MON forcing_qsw_del2             =   0.0000000000000E+00
(PID.TID 0000.0001) %MON forcing_empmr_max            =   8.2732094597304E-05
(PID.TID 0000.0001) %MON forcing_empmr_min            =  -7.3643138875923E-05
(PID.TID 0000.0001) %MON forcing_empmr_mean           =   7.9593021141906E-07
(PID.TID 0000.0001) %MON forcing_empmr_sd             =   2.7874041013016E-05
(PID.TID 0000.0001) %MON forcing_empmr_del2           =   3.6331922792719E-07
(PID.TID 0000.0001) %MON forcing_fu_max               =   2.7317289412022E-01
(PID.TID 0000.0001) %MON forcing_fu_min               =  -1.6030610948801E-01
(PID.TID 0000.0001) %MON forcing_fu_mean              =   1.6101741826049E-02
(PID.TID 0000.0001) %MON forcing_fu_sd                =   9.0133772222350E-02
(PID.TID 0000.0001) %MON forcing_fu_del2              =   6.5664222090357E-04
(PID.TID 0000.0001) %MON forcing_fv_max               =   2.0930016835531E-01
(PID.TID 0000.0001) %MON forcing_fv_min               =  -1.8573744744062E-01
(PID.TID 0000.0001) %MON forcing_fv_mean              =  -6.2178105886956E-03
(PID.TID 0000.0001) %MON forcing_fv_sd                =   4.5379778517573E-02
(PID.TID 0000.0001) %MON forcing_fv_del2              =   4.4636987924417E-04
(PID.TID 0000.0001) %MON trAdv_CFL_u_max              =   2.1494745817187E-02
(PID.TID 0000.0001) %MON trAdv_CFL_v_max              =   1.3103044368273E-02
(PID.TID 0000.0001) %MON trAdv_CFL_w_max              =   3.5102648237831E-02
(PID.TID 0000.0001) %MON advcfl_uvel_max              =   2.5651585597840E-02
(PID.TID 0000.0001) %MON advcfl_vvel_max              =   1.2656623405813E-02
(PID.TID 0000.0001) %MON advcfl_wvel_max              =   4.6553699851867E-02
(PID.TID 0000.0001) %MON advcfl_W_hf_max              =   5.2670077079646E-02
(PID.TID 0000.0001) %MON pe_b_mean                    =   3.5953669602714E-04
(PID.TID 0000.0001) %MON ke_max                       =   2.0646860629351E-03
(PID.TID 0000.0001) %MON ke_mean                      =   2.1618279046175E-05
(PID.TID 0000.0001) %MON ke_vol                       =   1.3226781986628E+18
(PID.TID 0000.0001) %MON vort_r_min                   =  -2.6819334208268E-07
(PID.TID 0000.0001) %MON vort_r_max                   =   2.9720973430816E-07
(PID.TID 0000.0001) %MON vort_a_mean                  =  -2.5274807223761E-05
(PID.TID 0000.0001) %MON vort_a_sd                    =   7.3604170361375E-05
(PID.TID 0000.0001) %MON vort_p_mean                  =  -3.1845640520201E-05
(PID.TID 0000.0001) %MON vort_p_sd                    =   1.3163353116466E-04
(PID.TID 0000.0001) %MON surfExpan_theta_mean         =   2.3814008265202E-06
(PID.TID 0000.0001) %MON surfExpan_salt_mean          =   1.2641651292485E-07
(PID.TID 0000.0001) // =======================================================
(PID.TID 0000.0001) // End MONITOR dynamic field statistics
(PID.TID 0000.0001) // =======================================================
 EXTERNAL_FIELDS_LOAD,         3 : iP,iLd,i0,i1=   12    1   12    1 ; Wght=  0.4000000000  0.6000000000
 cg2d: Sum(rhs),rhsMax =   1.71255172881747E-02  2.24777096178169E+00
(PID.TID 0000.0001)      cg2d_init_res =   4.26389685583531E-01
(PID.TID 0000.0001)      cg2d_iters(min,last) =      -1     138
(PID.TID 0000.0001)      cg2d_last_res =   8.60239701461040E-14
(PID.TID 0000.0001) // =======================================================
(PID.TID 0000.0001) // Begin MONITOR dynamic field statistics
(PID.TID 0000.0001) // =======================================================
(PID.TID 0000.0001) %MON time_tsnumber                =                     4
(PID.TID 0000.0001) %MON time_secondsf                =   3.4560000000000E+05
(PID.TID 0000.0001) %MON dynstat_eta_max              =   8.7595040433693E-01
(PID.TID 0000.0001) %MON dynstat_eta_min              =  -1.5955625143174E+00
(PID.TID 0000.0001) %MON dynstat_eta_mean             =  -2.6414035451983E-04
(PID.TID 0000.0001) %MON dynstat_eta_sd               =   5.5723845201053E-01
(PID.TID 0000.0001) %MON dynstat_eta_del2             =   2.3754605817638E-03
(PID.TID 0000.0001) %MON dynstat_uvel_max             =   6.8673071741663E-02
(PID.TID 0000.0001) %MON dynstat_uvel_min             =  -5.7714050814428E-02
(PID.TID 0000.0001) %MON dynstat_uvel_mean            =  -8.4753443364421E-04
(PID.TID 0000.0001) %MON dynstat_uvel_sd              =   4.5101794348536E-03
(PID.TID 0000.0001) %MON dynstat_uvel_del2            =   6.0215473437167E-05
(PID.TID 0000.0001) %MON dynstat_vvel_max             =   6.3336425282422E-02
(PID.TID 0000.0001) %MON dynstat_vvel_min             =  -8.0976990335269E-02
(PID.TID 0000.0001) %MON dynstat_vvel_mean            =   5.6179613730282E-04
(PID.TID 0000.0001) %MON dynstat_vvel_sd              =   7.4080034639009E-03
(PID.TID 0000.0001) %MON dynstat_vvel_del2            =   7.8884021844702E-05
(PID.TID 0000.0001) %MON dynstat_wvel_max             =   1.8124870852026E-04
(PID.TID 0000.0001) %MON dynstat_wvel_min             =  -1.5333789675501E-04
(PID.TID 0000.0001) %MON dynstat_wvel_mean            =   6.0823877662633E-10
(PID.TID 0000.0001) %MON dynstat_wvel_sd              =   2.0011931367908E-05
(PID.TID 0000.0001) %MON dynstat_wvel_del2            =   2.7737123713159E-07
(PID.TID 0000.0001) %MON dynstat_theta_max            =   2.9711432913690E+01
(PID.TID 0000.0001) %MON dynstat_theta_min            =  -1.9021928717384E+00
(PID.TID 0000.0001) %MON dynstat_theta_mean           =   3.6199360659886E+00
(PID.TID 0000.0001) %MON dynstat_theta_sd             =   4.4169422885594E+00
(PID.TID 0000.0001) %MON dynstat_theta_del2           =   5.4911410263870E-03
(PID.TID 0000.0001) %MON dynstat_salt_max             =   3.7437965862062E+01
(PID.TID 0000.0001) %MON dynstat_salt_min             =   2.9754547450631E+01
(PID.TID 0000.0001) %MON dynstat_salt_mean            =   3.4718005962772E+01
(PID.TID 0000.0001) %MON dynstat_salt_sd              =   2.9606340813926E-01
(PID.TID 0000.0001) %MON dynstat_salt_del2            =   1.0146767494622E-03
(PID.TID 0000.0001) %MON forcing_qnet_max             =   4.2903536987305E+02
(PID.TID 0000.0001) %MON forcing_qnet_min             =  -1.8562549743652E+02
(PID.TID 0000.0001) %MON forcing_qnet_mean            =  -1.6662669470921E+01
(PID.TID 0000.0001) %MON forcing_qnet_sd              =   1.1221272517031E+02
(PID.TID 0000.0001) %MON forcing_qnet_del2            =   9.9444386812388E-01
(PID.TID 0000.0001) %MON forcing_qsw_max              =   0.0000000000000E+00
(PID.TID 0000.0001) %MON forcing_qsw_min              =   0.0000000000000E+00
(PID.TID 0000.0001) %MON forcing_qsw_mean             =   0.0000000000000E+00
(PID.TID 0000.0001) %MON forcing_qsw_sd               =   0.0000000000000E+00
(PID.TID 0000.0001) %MON forcing_qsw_del2             =   0.0000000000000E+00
(PID.TID 0000.0001) %MON forcing_empmr_max            =   8.2476260843123E-05
(PID.TID 0000.0001) %MON forcing_empmr_min            =  -7.3379955267683E-05
(PID.TID 0000.0001) %MON forcing_empmr_mean           =   8.0569996916456E-07
(PID.TID 0000.0001) %MON forcing_empmr_sd             =   2.7920083767862E-05
(PID.TID 0000.0001) %MON forcing_empmr_del2           =   3.6296416696684E-07
(PID.TID 0000.0001) %MON forcing_fu_max               =   2.7231434583664E-01
(PID.TID 0000.0001) %MON forcing_fu_min               =  -1.6111952960491E-01
(PID.TID 0000.0001) %MON forcing_fu_mean              =   1.6094049005012E-02
(PID.TID 0000.0001) %MON forcing_fu_sd                =   9.0140377513934E-02
(PID.TID 0000.0001) %MON forcing_fu_del2              =   6.5893332094781E-04
(PID.TID 0000.0001) %MON forcing_fv_max               =   2.1056245863438E-01
(PID.TID 0000.0001) %MON forcing_fv_min               =  -1.8515278995037E-01
(PID.TID 0000.0001) %MON forcing_fv_mean              =  -6.1440480618348E-03
(PID.TID 0000.0001) %MON forcing_fv_sd                =   4.5513649503191E-02
(PID.TID 0000.0001) %MON forcing_fv_del2              =   4.4740184358134E-04
(PID.TID 0000.0001) %MON trAdv_CFL_u_max              =   2.5655576591506E-02
(PID.TID 0000.0001) %MON trAdv_CFL_v_max              =   1.3641287258070E-02
(PID.TID 0000.0001) %MON trAdv_CFL_w_max              =   4.7961747226356E-02
(PID.TID 0000.0001) %MON advcfl_uvel_max              =   2.8306155893304E-02
(PID.TID 0000.0001) %MON advcfl_vvel_max              =   1.5732530507357E-02
(PID.TID 0000.0001) %MON advcfl_wvel_max              =   5.8655926959051E-02
(PID.TID 0000.0001) %MON advcfl_W_hf_max              =   6.6361441770498E-02
(PID.TID 0000.0001) %MON pe_b_mean                    =   3.9734108582736E-04
(PID.TID 0000.0001) %MON ke_max                       =   3.6073371772804E-03
(PID.TID 0000.0001) %MON ke_mean                      =   3.4346992717026E-05
(PID.TID 0000.0001) %MON ke_vol                       =   1.3226781757359E+18
(PID.TID 0000.0001) %MON vort_r_min                   =  -3.1075556450475E-07
(PID.TID 0000.0001) %MON vort_r_max                   =   3.2671366043701E-07
(PID.TID 0000.0001) %MON vort_a_mean                  =  -2.5274807135630E-05
(PID.TID 0000.0001) %MON vort_a_sd                    =   7.3604186020231E-05
(PID.TID 0000.0001) %MON vort_p_mean                  =  -3.1845649839003E-05
(PID.TID 0000.0001) %MON vort_p_sd                    =   1.3163586344066E-04
(PID.TID 0000.0001) %MON surfExpan_theta_mean         =   1.0507707683574E-06
(PID.TID 0000.0001) %MON surfExpan_salt_mean          =   4.2075055330181E-08
(PID.TID 0000.0001) // =======================================================
(PID.TID 0000.0001) // End MONITOR dynamic field statistics
(PID.TID 0000.0001) // =======================================================
 EXTERNAL_FIELDS_LOAD,         4 : iP,iLd,i0,i1=   12    1   12    1 ; Wght=  0.3666666667  0.6333333333
 cg2d: Sum(rhs),rhsMax =   2.36375476596636E-02  2.04822172243693E+00
(PID.TID 0000.0001)      cg2d_init_res =   5.14677497395544E-01
(PID.TID 0000.0001)      cg2d_iters(min,last) =      -1     138
(PID.TID 0000.0001)      cg2d_last_res =   7.46447899162277E-14
(PID.TID 0000.0001) // =======================================================
(PID.TID 0000.0001) // Begin MONITOR dynamic field statistics
(PID.TID 0000.0001) // =======================================================
(PID.TID 0000.0001) %MON time_tsnumber                =                     5
(PID.TID 0000.0001) %MON time_secondsf                =   4.3200000000000E+05
(PID.TID 0000.0001) %MON dynstat_eta_max              =   8.8777975775856E-01
(PID.TID 0000.0001) %MON dynstat_eta_min              =  -1.5432238150061E+00
(PID.TID 0000.0001) %MON dynstat_eta_mean             =  -3.3221434911403E-04
(PID.TID 0000.0001) %MON dynstat_eta_sd               =   5.5658255355912E-01
(PID.TID 0000.0001) %MON dynstat_eta_del2             =   2.2913269741464E-03
(PID.TID 0000.0001) %MON dynstat_uvel_max             =   8.9050240821152E-02
(PID.TID 0000.0001) %MON dynstat_uvel_min             =  -6.8305572726688E-02
(PID.TID 0000.0001) %MON dynstat_uvel_mean            =  -6.8611285794193E-04
(PID.TID 0000.0001) %MON dynstat_uvel_sd              =   5.7115415734053E-03
(PID.TID 0000.0001) %MON dynstat_uvel_del2            =   6.9282734997072E-05
(PID.TID 0000.0001) %MON dynstat_vvel_max             =   7.4412151188211E-02
(PID.TID 0000.0001) %MON dynstat_vvel_min             =  -9.4030270589650E-02
(PID.TID 0000.0001) %MON dynstat_vvel_mean            =   2.6782235904036E-04
(PID.TID 0000.0001) %MON dynstat_vvel_sd              =   8.6679514018878E-03
(PID.TID 0000.0001) %MON dynstat_vvel_del2            =   9.1279085363692E-05
(PID.TID 0000.0001) %MON dynstat_wvel_max             =   2.0481371190015E-04
(PID.TID 0000.0001) %MON dynstat_wvel_min             =  -1.7265712867491E-04
(PID.TID 0000.0001) %MON dynstat_wvel_mean            =  -2.0655719037675E-11
(PID.TID 0000.0001) %MON dynstat_wvel_sd              =   2.2763313114233E-05
(PID.TID 0000.0001) %MON dynstat_wvel_del2            =   3.0876227389108E-07
(PID.TID 0000.0001) %MON dynstat_theta_max            =   2.9707175597629E+01
(PID.TID 0000.0001) %MON dynstat_theta_min            =  -1.9028192113379E+00
(PID.TID 0000.0001) %MON dynstat_theta_mean           =   3.6200186036514E+00
(PID.TID 0000.0001) %MON dynstat_theta_sd             =   4.4169388770782E+00
(PID.TID 0000.0001) %MON dynstat_theta_del2           =   5.4183337567373E-03
(PID.TID 0000.0001) %MON dynstat_salt_max             =   3.7436632479703E+01
(PID.TID 0000.0001) %MON dynstat_salt_min             =   2.9753429994380E+01
(PID.TID 0000.0001) %MON dynstat_salt_mean            =   3.4718007475513E+01
(PID.TID 0000.0001) %MON dynstat_salt_sd              =   2.9605774871015E-01
(PID.TID 0000.0001) %MON dynstat_salt_del2            =   1.0118413697100E-03
(PID.TID 0000.0001) %MON forcing_qnet_max             =   4.3008355712891E+02
(PID.TID 0000.0001) %MON forcing_qnet_min             =  -1.8515833485921E+02
(PID.TID 0000.0001) %MON forcing_qnet_mean            =  -1.6650157515098E+01
(PID.TID 0000.0001) %MON forcing_qnet_sd              =   1.1200321531664E+02
(PID.TID 0000.0001) %MON forcing_qnet_del2            =   9.9601163526981E-01
(PID.TID 0000.0001) %MON forcing_qsw_max              =   0.0000000000000E+00
(PID.TID 0000.0001) %MON forcing_qsw_min              =   0.0000000000000E+00
(PID.TID 0000.0001) %MON forcing_qsw_mean             =   0.0000000000000E+00
(PID.TID 0000.0001) %MON forcing_qsw_sd               =   0.0000000000000E+00
(PID.TID 0000.0001) %MON forcing_qsw_del2             =   0.0000000000000E+00
(PID.TID 0000.0001) %MON forcing_empmr_max            =   8.2220427088942E-05
(PID.TID 0000.0001) %MON forcing_empmr_min            =  -7.3116771659443E-05
(PID.TID 0000.0001) %MON forcing_empmr_mean           =   8.1546972691007E-07
(PID.TID 0000.0001) %MON forcing_empmr_sd             =   2.7970424919056E-05
(PID.TID 0000.0001) %MON forcing_empmr_del2           =   3.6272300962791E-07
(PID.TID 0000.0001) %MON forcing_fu_max               =   2.7145579755306E-01
(PID.TID 0000.0001) %MON forcing_fu_min               =  -1.6193294972181E-01
(PID.TID 0000.0001) %MON forcing_fu_mean              =   1.6086356183975E-02
(PID.TID 0000.0001) %MON forcing_fu_sd                =   9.0157845327697E-02
(PID.TID 0000.0001) %MON forcing_fu_del2              =   6.6174969745051E-04
(PID.TID 0000.0001) %MON forcing_fv_max               =   2.1244236379862E-01
(PID.TID 0000.0001) %MON forcing_fv_min               =  -1.8456813246012E-01
(PID.TID 0000.0001) %MON forcing_fv_mean              =  -6.0702855349740E-03
(PID.TID 0000.0001) %MON forcing_fv_sd                =   4.5662631572644E-02
(PID.TID 0000.0001) %MON forcing_fv_del2              =   4.4897783530480E-04
(PID.TID 0000.0001) %MON trAdv_CFL_u_max              =   2.8310403129941E-02
(PID.TID 0000.0001) %MON trAdv_CFL_v_max              =   1.6336192939406E-02
(PID.TID 0000.0001) %MON trAdv_CFL_w_max              =   5.6052316591348E-02
(PID.TID 0000.0001) %MON advcfl_uvel_max              =   3.2575315570183E-02
(PID.TID 0000.0001) %MON advcfl_vvel_max              =   1.8268573511337E-02
(PID.TID 0000.0001) %MON advcfl_wvel_max              =   6.8609281103712E-02
(PID.TID 0000.0001) %MON advcfl_W_hf_max              =   7.7622519790854E-02
(PID.TID 0000.0001) %MON pe_b_mean                    =   3.9640631345864E-04
(PID.TID 0000.0001) %MON ke_max                       =   5.4013478953991E-03
(PID.TID 0000.0001) %MON ke_mean                      =   4.8797305805115E-05
(PID.TID 0000.0001) %MON ke_vol                       =   1.3226781525276E+18
(PID.TID 0000.0001) %MON vort_r_min                   =  -3.2039177169536E-07
(PID.TID 0000.0001) %MON vort_r_max                   =   3.2285733120516E-07
(PID.TID 0000.0001) %MON vort_a_mean                  =  -2.5274807069385E-05
(PID.TID 0000.0001) %MON vort_a_sd                    =   7.3604218272499E-05
(PID.TID 0000.0001) %MON vort_p_mean                  =  -3.1845661319056E-05
(PID.TID 0000.0001) %MON vort_p_sd                    =   1.3163666305984E-04
(PID.TID 0000.0001) %MON surfExpan_theta_mean         =   2.0854759375217E-07
(PID.TID 0000.0001) %MON surfExpan_salt_mean          =  -2.0228297549658E-08
(PID.TID 0000.0001) // =======================================================
(PID.TID 0000.0001) // End MONITOR dynamic field statistics
(PID.TID 0000.0001) // =======================================================
 EXTERNAL_FIELDS_LOAD,         5 : iP,iLd,i0,i1=   12    1   12    1 ; Wght=  0.3333333333  0.6666666667
 cg2d: Sum(rhs),rhsMax =   3.19253387837991E-02  1.83097483453495E+00
(PID.TID 0000.0001)      cg2d_init_res =   6.26115996708907E-01
(PID.TID 0000.0001)      cg2d_iters(min,last) =      -1     136
(PID.TID 0000.0001)      cg2d_last_res =   9.61790666523831E-14
(PID.TID 0000.0001) // =======================================================
(PID.TID 0000.0001) // Begin MONITOR dynamic field statistics
(PID.TID 0000.0001) // =======================================================
(PID.TID 0000.0001) %MON time_tsnumber                =                     6
(PID.TID 0000.0001) %MON time_secondsf                =   5.1840000000000E+05
(PID.TID 0000.0001) %MON dynstat_eta_max              =   1.0324494695148E+00
(PID.TID 0000.0001) %MON dynstat_eta_min              =  -1.4936645375733E+00
(PID.TID 0000.0001) %MON dynstat_eta_mean             =  -4.0110390609398E-04
(PID.TID 0000.0001) %MON dynstat_eta_sd               =   5.4674921472835E-01
(PID.TID 0000.0001) %MON dynstat_eta_del2             =   2.2025090841702E-03
(PID.TID 0000.0001) %MON dynstat_uvel_max             =   1.0905621736217E-01
(PID.TID 0000.0001) %MON dynstat_uvel_min             =  -9.1129114795118E-02
(PID.TID 0000.0001) %MON dynstat_uvel_mean            =  -4.8118372371677E-04
(PID.TID 0000.0001) %MON dynstat_uvel_sd              =   6.9750899897844E-03
(PID.TID 0000.0001) %MON dynstat_uvel_del2            =   7.6103149899784E-05
(PID.TID 0000.0001) %MON dynstat_vvel_max             =   8.4152548753138E-02
(PID.TID 0000.0001) %MON dynstat_vvel_min             =  -1.0626286821971E-01
(PID.TID 0000.0001) %MON dynstat_vvel_mean            =   9.8756490759922E-07
(PID.TID 0000.0001) %MON dynstat_vvel_sd              =   9.6531021445634E-03
(PID.TID 0000.0001) %MON dynstat_vvel_del2            =   1.0043702033452E-04
(PID.TID 0000.0001) %MON dynstat_wvel_max             =   2.2434239832782E-04
(PID.TID 0000.0001) %MON dynstat_wvel_min             =  -1.8374626452105E-04
(PID.TID 0000.0001) %MON dynstat_wvel_mean            =  -1.6468815460120E-09
(PID.TID 0000.0001) %MON dynstat_wvel_sd              =   2.4534837388408E-05
(PID.TID 0000.0001) %MON dynstat_wvel_del2            =   3.2433662253162E-07
(PID.TID 0000.0001) %MON dynstat_theta_max            =   2.9703921752775E+01
(PID.TID 0000.0001) %MON dynstat_theta_min            =  -1.9034895357452E+00
(PID.TID 0000.0001) %MON dynstat_theta_mean           =   3.6200938776482E+00
(PID.TID 0000.0001) %MON dynstat_theta_sd             =   4.4169407352750E+00
(PID.TID 0000.0001) %MON dynstat_theta_del2           =   5.3436424633386E-03
(PID.TID 0000.0001) %MON dynstat_salt_max             =   3.7437078383823E+01
(PID.TID 0000.0001) %MON dynstat_salt_min             =   2.9751939694213E+01
(PID.TID 0000.0001) %MON dynstat_salt_mean            =   3.4718008673623E+01
(PID.TID 0000.0001) %MON dynstat_salt_sd              =   2.9605675424207E-01
(PID.TID 0000.0001) %MON dynstat_salt_del2            =   1.0098653460363E-03
(PID.TID 0000.0001) %MON forcing_qnet_max             =   4.3113174438477E+02
(PID.TID 0000.0001) %MON forcing_qnet_min             =  -1.8469117228190E+02
(PID.TID 0000.0001) %MON forcing_qnet_mean            =  -1.6637645559275E+01
(PID.TID 0000.0001) %MON forcing_qnet_sd              =   1.1179629855085E+02
(PID.TID 0000.0001) %MON forcing_qnet_del2            =   9.9775446314289E-01
(PID.TID 0000.0001) %MON forcing_qsw_max              =   0.0000000000000E+00
(PID.TID 0000.0001) %MON forcing_qsw_min              =   0.0000000000000E+00
(PID.TID 0000.0001) %MON forcing_qsw_mean             =   0.0000000000000E+00
(PID.TID 0000.0001) %MON forcing_qsw_sd               =   0.0000000000000E+00
(PID.TID 0000.0001) %MON forcing_qsw_del2             =   0.0000000000000E+00
(PID.TID 0000.0001) %MON forcing_empmr_max            =   8.1964593334760E-05
(PID.TID 0000.0001) %MON forcing_empmr_min            =  -7.2853588051203E-05
(PID.TID 0000.0001) %MON forcing_empmr_mean           =   8.2523948465557E-07
(PID.TID 0000.0001) %MON forcing_empmr_sd             =   2.8025041303087E-05
(PID.TID 0000.0001) %MON forcing_empmr_del2           =   3.6259598317743E-07
(PID.TID 0000.0001) %MON forcing_fu_max               =   2.7059724926949E-01
(PID.TID 0000.0001) %MON forcing_fu_min               =  -1.6274636983871E-01
(PID.TID 0000.0001) %MON forcing_fu_mean              =   1.6078663362938E-02
(PID.TID 0000.0001) %MON forcing_fu_sd                =   9.0186169351879E-02
(PID.TID 0000.0001) %MON forcing_fu_del2              =   6.6508467741693E-04
(PID.TID 0000.0001) %MON forcing_fv_max               =   2.1432226896286E-01
(PID.TID 0000.0001) %MON forcing_fv_min               =  -1.8398347496986E-01
(PID.TID 0000.0001) %MON forcing_fv_mean              =  -5.9965230081132E-03
(PID.TID 0000.0001) %MON forcing_fv_sd                =   4.5826577347902E-02
(PID.TID 0000.0001) %MON forcing_fv_del2              =   4.5109215240509E-04
(PID.TID 0000.0001) %MON trAdv_CFL_u_max              =   3.2578615500354E-02
(PID.TID 0000.0001) %MON trAdv_CFL_v_max              =   1.7767671000876E-02
(PID.TID 0000.0001) %MON trAdv_CFL_w_max              =   6.4862584634488E-02
(PID.TID 0000.0001) %MON advcfl_uvel_max              =   3.9963564850570E-02
(PID.TID 0000.0001) %MON advcfl_vvel_max              =   2.0645171043579E-02
(PID.TID 0000.0001) %MON advcfl_wvel_max              =   7.6308481296447E-02
(PID.TID 0000.0001) %MON advcfl_W_hf_max              =   8.6333871606481E-02
(PID.TID 0000.0001) %MON pe_b_mean                    =   3.8252322398953E-04
(PID.TID 0000.0001) %MON ke_max                       =   7.3428468022032E-03
(PID.TID 0000.0001) %MON ke_mean                      =   6.4042149563262E-05
(PID.TID 0000.0001) %MON ke_vol                       =   1.3226781290379E+18
(PID.TID 0000.0001) %MON vort_r_min                   =  -3.1197993562371E-07
(PID.TID 0000.0001) %MON vort_r_max                   =   4.1012221377744E-07
(PID.TID 0000.0001) %MON vort_a_mean                  =  -2.5274807028997E-05
(PID.TID 0000.0001) %MON vort_a_sd                    =   7.3604258193298E-05
(PID.TID 0000.0001) %MON vort_p_mean                  =  -3.1845668329957E-05
(PID.TID 0000.0001) %MON vort_p_sd                    =   1.3163650224591E-04
(PID.TID 0000.0001) %MON surfExpan_theta_mean         =  -2.0946749277173E-07
(PID.TID 0000.0001) %MON surfExpan_salt_mean          =  -5.1891815411545E-08
(PID.TID 0000.0001) // =======================================================
(PID.TID 0000.0001) // End MONITOR dynamic field statistics
(PID.TID 0000.0001) // =======================================================
 EXTERNAL_FIELDS_LOAD,         6 : iP,iLd,i0,i1=   12    1   12    1 ; Wght=  0.3000000000  0.7000000000
 cg2d: Sum(rhs),rhsMax =   4.27065817461170E-02  1.60661185248258E+00
(PID.TID 0000.0001)      cg2d_init_res =   7.36174558208514E-01
(PID.TID 0000.0001)      cg2d_iters(min,last) =      -1     135
(PID.TID 0000.0001)      cg2d_last_res =   9.63795532728593E-14
(PID.TID 0000.0001) // =======================================================
(PID.TID 0000.0001) // Begin MONITOR dynamic field statistics
(PID.TID 0000.0001) // =======================================================
(PID.TID 0000.0001) %MON time_tsnumber                =                     7
(PID.TID 0000.0001) %MON time_secondsf                =   6.0480000000000E+05
(PID.TID 0000.0001) %MON dynstat_eta_max              =   1.0919912970085E+00
(PID.TID 0000.0001) %MON dynstat_eta_min              =  -1.4566490977245E+00
(PID.TID 0000.0001) %MON dynstat_eta_mean             =  -4.7080902545966E-04
(PID.TID 0000.0001) %MON dynstat_eta_sd               =   5.3598334344746E-01
(PID.TID 0000.0001) %MON dynstat_eta_del2             =   2.1086410903730E-03
(PID.TID 0000.0001) %MON dynstat_uvel_max             =   1.2784112262049E-01
(PID.TID 0000.0001) %MON dynstat_uvel_min             =  -9.0025292200396E-02
(PID.TID 0000.0001) %MON dynstat_uvel_mean            =  -2.6006768221756E-04
(PID.TID 0000.0001) %MON dynstat_uvel_sd              =   8.2850819675800E-03
(PID.TID 0000.0001) %MON dynstat_uvel_del2            =   8.1144309506199E-05
(PID.TID 0000.0001) %MON dynstat_vvel_max             =   9.0957497952758E-02
(PID.TID 0000.0001) %MON dynstat_vvel_min             =  -1.1340642051417E-01
(PID.TID 0000.0001) %MON dynstat_vvel_mean            =  -1.9240676211630E-04
(PID.TID 0000.0001) %MON dynstat_vvel_sd              =   1.0341594333130E-02
(PID.TID 0000.0001) %MON dynstat_vvel_del2            =   1.0628200193222E-04
(PID.TID 0000.0001) %MON dynstat_wvel_max             =   2.3717409599198E-04
(PID.TID 0000.0001) %MON dynstat_wvel_min             =  -1.9232509014696E-04
(PID.TID 0000.0001) %MON dynstat_wvel_mean            =  -3.8235214263355E-09
(PID.TID 0000.0001) %MON dynstat_wvel_sd              =   2.5374976324220E-05
(PID.TID 0000.0001) %MON dynstat_wvel_del2            =   3.2546072562475E-07
(PID.TID 0000.0001) %MON dynstat_theta_max            =   2.9701289071333E+01
(PID.TID 0000.0001) %MON dynstat_theta_min            =  -1.9043078564365E+00
(PID.TID 0000.0001) %MON dynstat_theta_mean           =   3.6201625887070E+00
(PID.TID 0000.0001) %MON dynstat_theta_sd             =   4.4169429389181E+00
(PID.TID 0000.0001) %MON dynstat_theta_del2           =   5.2695001839694E-03
(PID.TID 0000.0001) %MON dynstat_salt_max             =   3.7436888033282E+01
(PID.TID 0000.0001) %MON dynstat_salt_min             =   2.9750544512943E+01
(PID.TID 0000.0001) %MON dynstat_salt_mean            =   3.4718009441156E+01
(PID.TID 0000.0001) %MON dynstat_salt_sd              =   2.9605768017097E-01
(PID.TID 0000.0001) %MON dynstat_salt_del2            =   1.0084141219138E-03
(PID.TID 0000.0001) %MON forcing_qnet_max             =   4.3217993164062E+02
(PID.TID 0000.0001) %MON forcing_qnet_min             =  -1.8422400970459E+02
(PID.TID 0000.0001) %MON forcing_qnet_mean            =  -1.6625133603452E+01
(PID.TID 0000.0001) %MON forcing_qnet_sd              =   1.1159198929743E+02
(PID.TID 0000.0001) %MON forcing_qnet_del2            =   9.9967143614056E-01
(PID.TID 0000.0001) %MON forcing_qsw_max              =   0.0000000000000E+00
(PID.TID 0000.0001) %MON forcing_qsw_min              =   0.0000000000000E+00
(PID.TID 0000.0001) %MON forcing_qsw_mean             =   0.0000000000000E+00
(PID.TID 0000.0001) %MON forcing_qsw_sd               =   0.0000000000000E+00
(PID.TID 0000.0001) %MON forcing_qsw_del2             =   0.0000000000000E+00
(PID.TID 0000.0001) %MON forcing_empmr_max            =   8.1887607450426E-05
(PID.TID 0000.0001) %MON forcing_empmr_min            =  -7.2590404442963E-05
(PID.TID 0000.0001) %MON forcing_empmr_mean           =   8.3500924240108E-07
(PID.TID 0000.0001) %MON forcing_empmr_sd             =   2.8083907977094E-05
(PID.TID 0000.0001) %MON forcing_empmr_del2           =   3.6258320756835E-07
(PID.TID 0000.0001) %MON forcing_fu_max               =   2.6977391839027E-01
(PID.TID 0000.0001) %MON forcing_fu_min               =  -1.6355978995562E-01
(PID.TID 0000.0001) %MON forcing_fu_mean              =   1.6070970541900E-02
(PID.TID 0000.0001) %MON forcing_fu_sd                =   9.0225339362360E-02
(PID.TID 0000.0001) %MON forcing_fu_del2              =   6.6893050433667E-04
(PID.TID 0000.0001) %MON forcing_fv_max               =   2.1620217412710E-01
(PID.TID 0000.0001) %MON forcing_fv_min               =  -1.8339881747961E-01
(PID.TID 0000.0001) %MON forcing_fv_mean              =  -5.9227604812524E-03
(PID.TID 0000.0001) %MON forcing_fv_sd                =   4.6005326854092E-02
(PID.TID 0000.0001) %MON forcing_fv_del2              =   4.5373726950670E-04
(PID.TID 0000.0001) %MON trAdv_CFL_u_max              =   3.9970994079050E-02
(PID.TID 0000.0001) %MON trAdv_CFL_v_max              =   1.9838811636437E-02
(PID.TID 0000.0001) %MON trAdv_CFL_w_max              =   6.9102796657307E-02
(PID.TID 0000.0001) %MON advcfl_uvel_max              =   5.1138714440517E-02
(PID.TID 0000.0001) %MON advcfl_vvel_max              =   2.2033048685588E-02
(PID.TID 0000.0001) %MON advcfl_wvel_max              =   8.1347790984516E-02
(PID.TID 0000.0001) %MON advcfl_W_hf_max              =   9.2036105018281E-02
(PID.TID 0000.0001) %MON pe_b_mean                    =   3.6760733438446E-04
(PID.TID 0000.0001) %MON ke_max                       =   9.3283684434953E-03
(PID.TID 0000.0001) %MON ke_mean                      =   7.9246619811438E-05
(PID.TID 0000.0001) %MON ke_vol                       =   1.3226781052668E+18
(PID.TID 0000.0001) %MON vort_r_min                   =  -3.0314577670180E-07
(PID.TID 0000.0001) %MON vort_r_max                   =   4.4414584997349E-07
(PID.TID 0000.0001) %MON vort_a_mean                  =  -2.5274807037086E-05
(PID.TID 0000.0001) %MON vort_a_sd                    =   7.3604299344363E-05
(PID.TID 0000.0001) %MON vort_p_mean                  =  -3.1845669388286E-05
(PID.TID 0000.0001) %MON vort_p_sd                    =   1.3163606122832E-04
(PID.TID 0000.0001) %MON surfExpan_theta_mean         =  -3.7579631892295E-07
(PID.TID 0000.0001) %MON surfExpan_salt_mean          =  -5.9810300937057E-08
(PID.TID 0000.0001) // =======================================================
(PID.TID 0000.0001) // End MONITOR dynamic field statistics
(PID.TID 0000.0001) // =======================================================
 EXTERNAL_FIELDS_LOAD,         7 : iP,iLd,i0,i1=   12    1   12    1 ; Wght=  0.2666666667  0.7333333333
 cg2d: Sum(rhs),rhsMax =   5.68035912187068E-02  1.38882353095458E+00
(PID.TID 0000.0001)      cg2d_init_res =   8.55551901906148E-01
(PID.TID 0000.0001)      cg2d_iters(min,last) =      -1     137
(PID.TID 0000.0001)      cg2d_last_res =   9.17206777111523E-14
(PID.TID 0000.0001) // =======================================================
(PID.TID 0000.0001) // Begin MONITOR dynamic field statistics
(PID.TID 0000.0001) // =======================================================
(PID.TID 0000.0001) %MON time_tsnumber                =                     8
(PID.TID 0000.0001) %MON time_secondsf                =   6.9120000000000E+05
(PID.TID 0000.0001) %MON dynstat_eta_max              =   1.0698881275461E+00
(PID.TID 0000.0001) %MON dynstat_eta_min              =  -1.4256004230624E+00
(PID.TID 0000.0001) %MON dynstat_eta_mean             =  -5.4132970721101E-04
(PID.TID 0000.0001) %MON dynstat_eta_sd               =   5.2801319046977E-01
(PID.TID 0000.0001) %MON dynstat_eta_del2             =   2.0165717637167E-03
(PID.TID 0000.0001) %MON dynstat_uvel_max             =   1.4476605055902E-01
(PID.TID 0000.0001) %MON dynstat_uvel_min             =  -1.1809762001809E-01
(PID.TID 0000.0001) %MON dynstat_uvel_mean            =  -4.4162990328284E-05
(PID.TID 0000.0001) %MON dynstat_uvel_sd              =   9.6045761033905E-03
(PID.TID 0000.0001) %MON dynstat_uvel_del2            =   8.5163751106815E-05
(PID.TID 0000.0001) %MON dynstat_vvel_max             =   9.5073330618725E-02
(PID.TID 0000.0001) %MON dynstat_vvel_min             =  -1.1742356529818E-01
(PID.TID 0000.0001) %MON dynstat_vvel_mean            =  -2.9439814944159E-04
(PID.TID 0000.0001) %MON dynstat_vvel_sd              =   1.0743268991235E-02
(PID.TID 0000.0001) %MON dynstat_vvel_del2            =   1.0941908543665E-04
(PID.TID 0000.0001) %MON dynstat_wvel_max             =   2.4230465194419E-04
(PID.TID 0000.0001) %MON dynstat_wvel_min             =  -1.9282085885903E-04
(PID.TID 0000.0001) %MON dynstat_wvel_mean            =  -7.1732692398410E-09
(PID.TID 0000.0001) %MON dynstat_wvel_sd              =   2.5357209508242E-05
(PID.TID 0000.0001) %MON dynstat_wvel_del2            =   3.1422241068323E-07
(PID.TID 0000.0001) %MON dynstat_theta_max            =   2.9699059922938E+01
(PID.TID 0000.0001) %MON dynstat_theta_min            =  -1.9052684513020E+00
(PID.TID 0000.0001) %MON dynstat_theta_mean           =   3.6202269780947E+00
(PID.TID 0000.0001) %MON dynstat_theta_sd             =   4.4169464846448E+00
(PID.TID 0000.0001) %MON dynstat_theta_del2           =   5.2001849957637E-03
(PID.TID 0000.0001) %MON dynstat_salt_max             =   3.7436457076132E+01
(PID.TID 0000.0001) %MON dynstat_salt_min             =   2.9749380778547E+01
(PID.TID 0000.0001) %MON dynstat_salt_mean            =   3.4718009870112E+01
(PID.TID 0000.0001) %MON dynstat_salt_sd              =   2.9605994943595E-01
(PID.TID 0000.0001) %MON dynstat_salt_del2            =   1.0074700064905E-03
(PID.TID 0000.0001) %MON forcing_qnet_max             =   4.3322811889648E+02
(PID.TID 0000.0001) %MON forcing_qnet_min             =  -1.8375684712728E+02
(PID.TID 0000.0001) %MON forcing_qnet_mean            =  -1.6612621647628E+01
(PID.TID 0000.0001) %MON forcing_qnet_sd              =   1.1139030190430E+02
(PID.TID 0000.0001) %MON forcing_qnet_del2            =   1.0017615545299E+00
(PID.TID 0000.0001) %MON forcing_qsw_max              =   0.0000000000000E+00
(PID.TID 0000.0001) %MON forcing_qsw_min              =   0.0000000000000E+00
(PID.TID 0000.0001) %MON forcing_qsw_mean             =   0.0000000000000E+00
(PID.TID 0000.0001) %MON forcing_qsw_sd               =   0.0000000000000E+00
(PID.TID 0000.0001) %MON forcing_qsw_del2             =   0.0000000000000E+00
(PID.TID 0000.0001) %MON forcing_empmr_max            =   8.1889273909989E-05
(PID.TID 0000.0001) %MON forcing_empmr_min            =  -7.2333472189712E-05
(PID.TID 0000.0001) %MON forcing_empmr_mean           =   8.4477900014658E-07
(PID.TID 0000.0001) %MON forcing_empmr_sd             =   2.8146998273902E-05
(PID.TID 0000.0001) %MON forcing_empmr_del2           =   3.6268469487418E-07
(PID.TID 0000.0001) %MON forcing_fu_max               =   2.6985520720482E-01
(PID.TID 0000.0001) %MON forcing_fu_min               =  -1.6437321007252E-01
(PID.TID 0000.0001) %MON forcing_fu_mean              =   1.6063277720863E-02
(PID.TID 0000.0001) %MON forcing_fu_sd                =   9.0275341241088E-02
(PID.TID 0000.0001) %MON forcing_fu_del2              =   6.7327842425542E-04
(PID.TID 0000.0001) %MON forcing_fv_max               =   2.1808207929134E-01
(PID.TID 0000.0001) %MON forcing_fv_min               =  -1.8281415998936E-01
(PID.TID 0000.0001) %MON forcing_fv_mean              =  -5.8489979543915E-03
(PID.TID 0000.0001) %MON forcing_fv_sd                =   4.6198708258185E-02
(PID.TID 0000.0001) %MON forcing_fv_del2              =   4.5690396795039E-04
(PID.TID 0000.0001) %MON trAdv_CFL_u_max              =   5.1148198161772E-02
(PID.TID 0000.0001) %MON trAdv_CFL_v_max              =   2.1330367275524E-02
(PID.TID 0000.0001) %MON trAdv_CFL_w_max              =   7.2861916472806E-02
(PID.TID 0000.0001) %MON advcfl_uvel_max              =   6.7085152612073E-02
(PID.TID 0000.0001) %MON advcfl_vvel_max              =   2.2813515489864E-02
(PID.TID 0000.0001) %MON advcfl_wvel_max              =   8.3935706984555E-02
(PID.TID 0000.0001) %MON advcfl_W_hf_max              =   9.4964943287993E-02
(PID.TID 0000.0001) %MON pe_b_mean                    =   3.5675597365172E-04
(PID.TID 0000.0001) %MON ke_max                       =   1.1264869994580E-02
(PID.TID 0000.0001) %MON ke_mean                      =   9.3765528308148E-05
(PID.TID 0000.0001) %MON ke_vol                       =   1.3226780812142E+18
(PID.TID 0000.0001) %MON vort_r_min                   =  -3.3655340872789E-07
(PID.TID 0000.0001) %MON vort_r_max                   =   4.7699647423267E-07
(PID.TID 0000.0001) %MON vort_a_mean                  =  -2.5274807081758E-05
(PID.TID 0000.0001) %MON vort_a_sd                    =   7.3604336757836E-05
(PID.TID 0000.0001) %MON vort_p_mean                  =  -3.1845665590663E-05
(PID.TID 0000.0001) %MON vort_p_sd                    =   1.3163558699692E-04
(PID.TID 0000.0001) %MON surfExpan_theta_mean         =  -4.2765007650101E-07
(PID.TID 0000.0001) %MON surfExpan_salt_mean          =  -5.4892213138392E-08
(PID.TID 0000.0001) // =======================================================
(PID.TID 0000.0001) // End MONITOR dynamic field statistics
(PID.TID 0000.0001) // =======================================================
 EXTERNAL_FIELDS_LOAD,         8 : iP,iLd,i0,i1=   12    1   12    1 ; Wght=  0.2333333333  0.7666666667
 cg2d: Sum(rhs),rhsMax =   7.44606920469408E-02  1.19910627456465E+00
(PID.TID 0000.0001)      cg2d_init_res =   9.63695102931408E-01
(PID.TID 0000.0001)      cg2d_iters(min,last) =      -1     137
(PID.TID 0000.0001)      cg2d_last_res =   8.35886315559167E-14
(PID.TID 0000.0001) // =======================================================
(PID.TID 0000.0001) // Begin MONITOR dynamic field statistics
(PID.TID 0000.0001) // =======================================================
(PID.TID 0000.0001) %MON time_tsnumber                =                     9
(PID.TID 0000.0001) %MON time_secondsf                =   7.7760000000000E+05
(PID.TID 0000.0001) %MON dynstat_eta_max              =   9.8882453060821E-01
(PID.TID 0000.0001) %MON dynstat_eta_min              =  -1.3974832106352E+00
(PID.TID 0000.0001) %MON dynstat_eta_mean             =  -6.1266595134807E-04
(PID.TID 0000.0001) %MON dynstat_eta_sd               =   5.2464932920513E-01
(PID.TID 0000.0001) %MON dynstat_eta_del2             =   1.9348778802850E-03
(PID.TID 0000.0001) %MON dynstat_uvel_max             =   1.5929158984262E-01
(PID.TID 0000.0001) %MON dynstat_uvel_min             =  -1.4203259460712E-01
(PID.TID 0000.0001) %MON dynstat_uvel_mean            =   1.5026020653757E-04
(PID.TID 0000.0001) %MON dynstat_uvel_sd              =   1.0889924373414E-02
(PID.TID 0000.0001) %MON dynstat_uvel_del2            =   8.8398813246706E-05
(PID.TID 0000.0001) %MON dynstat_vvel_max             =   9.6640436331645E-02
(PID.TID 0000.0001) %MON dynstat_vvel_min             =  -1.1950051414461E-01
(PID.TID 0000.0001) %MON dynstat_vvel_mean            =  -3.1257800168224E-04
(PID.TID 0000.0001) %MON dynstat_vvel_sd              =   1.0884578473785E-02
(PID.TID 0000.0001) %MON dynstat_vvel_del2            =   1.0976414677336E-04
(PID.TID 0000.0001) %MON dynstat_wvel_max             =   2.3870306681949E-04
(PID.TID 0000.0001) %MON dynstat_wvel_min             =  -1.9759753131057E-04
(PID.TID 0000.0001) %MON dynstat_wvel_mean            =  -1.1339567283412E-08
(PID.TID 0000.0001) %MON dynstat_wvel_sd              =   2.4627632179762E-05
(PID.TID 0000.0001) %MON dynstat_wvel_del2            =   2.9347053361934E-07
(PID.TID 0000.0001) %MON dynstat_theta_max            =   2.9697244229024E+01
(PID.TID 0000.0001) %MON dynstat_theta_min            =  -1.9134806315828E+00
(PID.TID 0000.0001) %MON dynstat_theta_mean           =   3.6202888962280E+00
(PID.TID 0000.0001) %MON dynstat_theta_sd             =   4.4169527716289E+00
(PID.TID 0000.0001) %MON dynstat_theta_del2           =   5.1374762102829E-03
(PID.TID 0000.0001) %MON dynstat_salt_max             =   3.7435922390202E+01
(PID.TID 0000.0001) %MON dynstat_salt_min             =   2.9748610422466E+01
(PID.TID 0000.0001) %MON dynstat_salt_mean            =   3.4718010103789E+01
(PID.TID 0000.0001) %MON dynstat_salt_sd              =   2.9606292793431E-01
(PID.TID 0000.0001) %MON dynstat_salt_del2            =   1.0066987433836E-03
(PID.TID 0000.0001) %MON forcing_qnet_max             =   4.3427630615234E+02
(PID.TID 0000.0001) %MON forcing_qnet_min             =  -1.8328968454997E+02
(PID.TID 0000.0001) %MON forcing_qnet_mean            =  -1.6600109691805E+01
(PID.TID 0000.0001) %MON forcing_qnet_sd              =   1.1119125063866E+02
(PID.TID 0000.0001) %MON forcing_qnet_del2            =   1.0040237369794E+00
(PID.TID 0000.0001) %MON forcing_qsw_max              =   0.0000000000000E+00
(PID.TID 0000.0001) %MON forcing_qsw_min              =   0.0000000000000E+00
(PID.TID 0000.0001) %MON forcing_qsw_mean             =   0.0000000000000E+00
(PID.TID 0000.0001) %MON forcing_qsw_sd               =   0.0000000000000E+00
(PID.TID 0000.0001) %MON forcing_qsw_del2             =   0.0000000000000E+00
(PID.TID 0000.0001) %MON forcing_empmr_max            =   8.1890940369552E-05
(PID.TID 0000.0001) %MON forcing_empmr_min            =  -7.2715819499081E-05
(PID.TID 0000.0001) %MON forcing_empmr_mean           =   8.5454875789209E-07
(PID.TID 0000.0001) %MON forcing_empmr_sd             =   2.8214283860046E-05
(PID.TID 0000.0001) %MON forcing_empmr_del2           =   3.6290034923196E-07
(PID.TID 0000.0001) %MON forcing_fu_max               =   2.6993649601936E-01
(PID.TID 0000.0001) %MON forcing_fu_min               =  -1.6518663018942E-01
(PID.TID 0000.0001) %MON forcing_fu_mean              =   1.6055584899826E-02
(PID.TID 0000.0001) %MON forcing_fu_sd                =   9.0336157001452E-02
(PID.TID 0000.0001) %MON forcing_fu_del2              =   6.7811877937571E-04
(PID.TID 0000.0001) %MON forcing_fv_max               =   2.1996198445559E-01
(PID.TID 0000.0001) %MON forcing_fv_min               =  -1.8222950249910E-01
(PID.TID 0000.0001) %MON forcing_fv_mean              =  -5.7752354275308E-03
(PID.TID 0000.0001) %MON forcing_fv_sd                =   4.6406538642117E-02
(PID.TID 0000.0001) %MON forcing_fv_del2              =   4.6058148956476E-04
(PID.TID 0000.0001) %MON trAdv_CFL_u_max              =   6.7097592404347E-02
(PID.TID 0000.0001) %MON trAdv_CFL_v_max              =   2.2085977271024E-02
(PID.TID 0000.0001) %MON trAdv_CFL_w_max              =   7.5180580102994E-02
(PID.TID 0000.0001) %MON advcfl_uvel_max              =   8.0681374304137E-02
(PID.TID 0000.0001) %MON advcfl_vvel_max              =   2.3217033340471E-02
(PID.TID 0000.0001) %MON advcfl_wvel_max              =   8.3740296182766E-02
(PID.TID 0000.0001) %MON advcfl_W_hf_max              =   9.4744834959621E-02
(PID.TID 0000.0001) %MON pe_b_mean                    =   3.5222493494952E-04
(PID.TID 0000.0001) %MON ke_max                       =   1.3072406078877E-02
(PID.TID 0000.0001) %MON ke_mean                      =   1.0711975802286E-04
(PID.TID 0000.0001) %MON ke_vol                       =   1.3226780568803E+18
(PID.TID 0000.0001) %MON vort_r_min                   =  -3.7173465150976E-07
(PID.TID 0000.0001) %MON vort_r_max                   =   5.1345418474685E-07
(PID.TID 0000.0001) %MON vort_a_mean                  =  -2.5274807149206E-05
(PID.TID 0000.0001) %MON vort_a_sd                    =   7.3604367477968E-05
(PID.TID 0000.0001) %MON vort_p_mean                  =  -3.1845658565640E-05
(PID.TID 0000.0001) %MON vort_p_sd                    =   1.3163526291112E-04
(PID.TID 0000.0001) %MON surfExpan_theta_mean         =  -4.3416135538007E-07
(PID.TID 0000.0001) %MON surfExpan_salt_mean          =  -4.5928933649420E-08
(PID.TID 0000.0001) // =======================================================
(PID.TID 0000.0001) // End MONITOR dynamic field statistics
(PID.TID 0000.0001) // =======================================================
 EXTERNAL_FIELDS_LOAD,         9 : iP,iLd,i0,i1=   12    1   12    1 ; Wght=  0.2000000000  0.8000000000
 cg2d: Sum(rhs),rhsMax =   8.81727137592683E-02  1.13188369622790E+00
(PID.TID 0000.0001)      cg2d_init_res =   9.64190393516074E-01
(PID.TID 0000.0001)      cg2d_iters(min,last) =      -1     137
(PID.TID 0000.0001)      cg2d_last_res =   7.57869323459449E-14
(PID.TID 0000.0001) // =======================================================
(PID.TID 0000.0001) // Begin MONITOR dynamic field statistics
(PID.TID 0000.0001) // =======================================================
(PID.TID 0000.0001) %MON time_tsnumber                =                    10
(PID.TID 0000.0001) %MON time_secondsf                =   8.6400000000000E+05
(PID.TID 0000.0001) %MON dynstat_eta_max              =   8.8031936148742E-01
(PID.TID 0000.0001) %MON dynstat_eta_min              =  -1.3730376320144E+00
(PID.TID 0000.0001) %MON dynstat_eta_mean             =  -6.8481775787083E-04
(PID.TID 0000.0001) %MON dynstat_eta_sd               =   5.2621190942498E-01
(PID.TID 0000.0001) %MON dynstat_eta_del2             =   1.8673921310992E-03
(PID.TID 0000.0001) %MON dynstat_uvel_max             =   1.7098543242898E-01
(PID.TID 0000.0001) %MON dynstat_uvel_min             =  -1.5914683846032E-01
(PID.TID 0000.0001) %MON dynstat_uvel_mean            =   3.1337975926248E-04
(PID.TID 0000.0001) %MON dynstat_uvel_sd              =   1.2099980137782E-02
(PID.TID 0000.0001) %MON dynstat_uvel_del2            =   9.1537575005792E-05
(PID.TID 0000.0001) %MON dynstat_vvel_max             =   9.8760905477631E-02
(PID.TID 0000.0001) %MON dynstat_vvel_min             =  -1.1904825923563E-01
(PID.TID 0000.0001) %MON dynstat_vvel_mean            =  -2.7010590612980E-04
(PID.TID 0000.0001) %MON dynstat_vvel_sd              =   1.0802864818132E-02
(PID.TID 0000.0001) %MON dynstat_vvel_del2            =   1.0832445919536E-04
(PID.TID 0000.0001) %MON dynstat_wvel_max             =   2.2814021180197E-04
(PID.TID 0000.0001) %MON dynstat_wvel_min             =  -1.9675732453851E-04
(PID.TID 0000.0001) %MON dynstat_wvel_mean            =  -1.4952934212153E-08
(PID.TID 0000.0001) %MON dynstat_wvel_sd              =   2.3402069350255E-05
(PID.TID 0000.0001) %MON dynstat_wvel_del2            =   2.6752786983317E-07
(PID.TID 0000.0001) %MON dynstat_theta_max            =   2.9695978474112E+01
(PID.TID 0000.0001) %MON dynstat_theta_min            =  -1.9137195573120E+00
(PID.TID 0000.0001) %MON dynstat_theta_mean           =   3.6203495174393E+00
(PID.TID 0000.0001) %MON dynstat_theta_sd             =   4.4169626478263E+00
(PID.TID 0000.0001) %MON dynstat_theta_del2           =   5.0826161595515E-03
(PID.TID 0000.0001) %MON dynstat_salt_max             =   3.7435310590324E+01
(PID.TID 0000.0001) %MON dynstat_salt_min             =   2.9748285631237E+01
(PID.TID 0000.0001) %MON dynstat_salt_mean            =   3.4718010274321E+01
(PID.TID 0000.0001) %MON dynstat_salt_sd              =   2.9606610367291E-01
(PID.TID 0000.0001) %MON dynstat_salt_del2            =   1.0062289394427E-03
(PID.TID 0000.0001) %MON forcing_qnet_max             =   4.3532449340820E+02
(PID.TID 0000.0001) %MON forcing_qnet_min             =  -1.8282252197266E+02
(PID.TID 0000.0001) %MON forcing_qnet_mean            =  -1.6587597735982E+01
(PID.TID 0000.0001) %MON forcing_qnet_sd              =   1.1099484968290E+02
(PID.TID 0000.0001) %MON forcing_qnet_del2            =   1.0064568232602E+00
(PID.TID 0000.0001) %MON forcing_qsw_max              =   0.0000000000000E+00
(PID.TID 0000.0001) %MON forcing_qsw_min              =   0.0000000000000E+00
(PID.TID 0000.0001) %MON forcing_qsw_mean             =   0.0000000000000E+00
(PID.TID 0000.0001) %MON forcing_qsw_sd               =   0.0000000000000E+00
(PID.TID 0000.0001) %MON forcing_qsw_del2             =   0.0000000000000E+00
(PID.TID 0000.0001) %MON forcing_empmr_max            =   8.1892606829115E-05
(PID.TID 0000.0001) %MON forcing_empmr_min            =  -7.3098166808450E-05
(PID.TID 0000.0001) %MON forcing_empmr_mean           =   8.6431851563759E-07
(PID.TID 0000.0001) %MON forcing_empmr_sd             =   2.8285734796509E-05
(PID.TID 0000.0001) %MON forcing_empmr_del2           =   3.6322996729435E-07
(PID.TID 0000.0001) %MON forcing_fu_max               =   2.7001778483391E-01
(PID.TID 0000.0001) %MON forcing_fu_min               =  -1.6600005030632E-01
(PID.TID 0000.0001) %MON forcing_fu_mean              =   1.6047892078789E-02
(PID.TID 0000.0001) %MON forcing_fu_sd                =   9.0407764820515E-02
(PID.TID 0000.0001) %MON forcing_fu_del2              =   6.8344110701255E-04
(PID.TID 0000.0001) %MON forcing_fv_max               =   2.2184188961983E-01
(PID.TID 0000.0001) %MON forcing_fv_min               =  -1.8164484500885E-01
(PID.TID 0000.0001) %MON forcing_fv_mean              =  -5.7014729006700E-03
(PID.TID 0000.0001) %MON forcing_fv_sd                =   4.6628624802842E-02
(PID.TID 0000.0001) %MON forcing_fv_del2              =   4.6475770842672E-04
(PID.TID 0000.0001) %MON trAdv_CFL_u_max              =   8.0696329458291E-02
(PID.TID 0000.0001) %MON trAdv_CFL_v_max              =   2.2476525729429E-02
(PID.TID 0000.0001) %MON trAdv_CFL_w_max              =   7.5006327676367E-02
(PID.TID 0000.0001) %MON advcfl_uvel_max              =   9.0403091478082E-02
(PID.TID 0000.0001) %MON advcfl_vvel_max              =   2.3129167464953E-02
(PID.TID 0000.0001) %MON advcfl_wvel_max              =   8.1342256186246E-02
(PID.TID 0000.0001) %MON advcfl_W_hf_max              =   9.2032674671987E-02
(PID.TID 0000.0001) %MON pe_b_mean                    =   3.5432626890828E-04
(PID.TID 0000.0001) %MON ke_max                       =   1.4686611414821E-02
(PID.TID 0000.0001) %MON ke_mean                      =   1.1898604121231E-04
(PID.TID 0000.0001) %MON ke_vol                       =   1.3226780322649E+18
(PID.TID 0000.0001) %MON vort_r_min                   =  -4.2847439529282E-07
(PID.TID 0000.0001) %MON vort_r_max                   =   5.4657527121821E-07
(PID.TID 0000.0001) %MON vort_a_mean                  =  -2.5274807208904E-05
(PID.TID 0000.0001) %MON vort_a_sd                    =   7.3604389706260E-05
(PID.TID 0000.0001) %MON vort_p_mean                  =  -3.1845649735110E-05
(PID.TID 0000.0001) %MON vort_p_sd                    =   1.3163504623863E-04
(PID.TID 0000.0001) %MON surfExpan_theta_mean         =  -4.1285441952209E-07
(PID.TID 0000.0001) %MON surfExpan_salt_mean          =  -3.7673468452168E-08
(PID.TID 0000.0001) // =======================================================
(PID.TID 0000.0001) // End MONITOR dynamic field statistics
(PID.TID 0000.0001) // =======================================================
 Computing Diagnostic #     23  ETAN         Counter:      10   Parms: SM      M1      
 Computing Diagnostic #     24  ETANSQ       Counter:      10   Parms: SM P    M1      
 Computing Diagnostic #     25  DETADT2      Counter:      10   Parms: SM      M1      
 Computing Diagnostic #     73  PHIBOT       Counter:      10   Parms: SM      M1      
 Computing Diagnostic #     74  PHIBOTSQ     Counter:      10   Parms: SM P    M1      
 Computing Diagnostic #     45  UVELMASS     Counter:      10   Parms: UUr     MR      
           Vector  Mate for  UVELMASS     Diagnostic #     46  VVELMASS exists 
 Computing Diagnostic #     46  VVELMASS     Counter:      10   Parms: VVr     MR      
           Vector  Mate for  VVELMASS     Diagnostic #     45  UVELMASS exists 
 Computing Diagnostic #     32  WVEL         Counter:      10   Parms: WM      LR      
 Computing Diagnostic #     26  THETA        Counter:      10   Parms: SMR     MR      
 Computing Diagnostic #     27  SALT         Counter:      10   Parms: SMR     MR      
 Computing Diagnostic #     38  WVELSQ       Counter:      10   Parms: WM P    LR      
 Computing Diagnostic #     64  RHOAnoma     Counter:      10   Parms: SMR     MR      
 Computing Diagnostic #     78  DRHODR       Counter:      10   Parms: SM      LR      
 Computing Diagnostic #     79  CONVADJ      Counter:      10   Parms: SMR     LR      
 Computing Diagnostic #    209  GM_Kwx       Counter:      10   Parms: UM      LR      
           Vector  Mate for  GM_Kwx       Diagnostic #    210  GM_Kwy   exists 
 Computing Diagnostic #    210  GM_Kwy       Counter:      10   Parms: VM      LR      
           Vector  Mate for  GM_Kwy       Diagnostic #    209  GM_Kwx   exists 
 Computing Diagnostic #    211  GM_Kwz       Counter:      10   Parms: WM P    LR      
(PID.TID 0000.0001) DIAGSTATS_CLOSE_IO: close file: dynStDiag.0000000000.txt , unit=     9
(PID.TID 0000.0001) DIAGSTATS_CLOSE_IO: close file: oceStDiag.0000000000.txt , unit=    10
(PID.TID 0000.0001) %CHECKPOINT        10 ckptA
(PID.TID 0000.0001)   Seconds in section "ALL                    [THE_MODEL_MAIN]":
(PID.TID 0000.0001)           User time:   16.435054422821850
(PID.TID 0000.0001)         System time:  0.28051999281160533
(PID.TID 0000.0001)     Wall clock time:   16.725636959075928
(PID.TID 0000.0001)          No. starts:           1
(PID.TID 0000.0001)           No. stops:           1
(PID.TID 0000.0001)   Seconds in section "INITIALISE_FIXED       [THE_MODEL_MAIN]":
(PID.TID 0000.0001)           User time:  0.17052999697625637
(PID.TID 0000.0001)         System time:   7.9357999376952648E-002
(PID.TID 0000.0001)     Wall clock time:  0.25843501091003418
(PID.TID 0000.0001)          No. starts:           1
(PID.TID 0000.0001)           No. stops:           1
(PID.TID 0000.0001)   Seconds in section "THE_MAIN_LOOP          [THE_MODEL_MAIN]":
(PID.TID 0000.0001)           User time:   16.264468699693680
(PID.TID 0000.0001)         System time:  0.20113798975944519
(PID.TID 0000.0001)     Wall clock time:   16.467136859893799
(PID.TID 0000.0001)          No. starts:           1
(PID.TID 0000.0001)           No. stops:           1
(PID.TID 0000.0001)   Seconds in section "INITIALISE_VARIA    [THE_MAIN_LOOP]":
(PID.TID 0000.0001)           User time:  0.78636597096920013
(PID.TID 0000.0001)         System time:   6.4582005143165588E-002
(PID.TID 0000.0001)     Wall clock time:  0.85104417800903320
(PID.TID 0000.0001)          No. starts:           1
(PID.TID 0000.0001)           No. stops:           1
(PID.TID 0000.0001)   Seconds in section "MAIN LOOP           [THE_MAIN_LOOP]":
(PID.TID 0000.0001)           User time:   15.478080093860626
(PID.TID 0000.0001)         System time:  0.13655199110507965
(PID.TID 0000.0001)     Wall clock time:   15.616068124771118
(PID.TID 0000.0001)          No. starts:           1
(PID.TID 0000.0001)           No. stops:           1
(PID.TID 0000.0001)   Seconds in section "MAIN_DO_LOOP        [THE_MAIN_LOOP]":
(PID.TID 0000.0001)           User time:   15.478000640869141
(PID.TID 0000.0001)         System time:  0.13655099272727966
(PID.TID 0000.0001)     Wall clock time:   15.615987539291382
(PID.TID 0000.0001)          No. starts:          10
(PID.TID 0000.0001)           No. stops:          10
(PID.TID 0000.0001)   Seconds in section "FORWARD_STEP        [MAIN_DO_LOOP]":
(PID.TID 0000.0001)           User time:   15.477854430675507
(PID.TID 0000.0001)         System time:  0.13654999434947968
(PID.TID 0000.0001)     Wall clock time:   15.615839242935181
(PID.TID 0000.0001)          No. starts:          10
(PID.TID 0000.0001)           No. stops:          10
(PID.TID 0000.0001)   Seconds in section "UPDATE_R_STAR       [FORWARD_STEP]":
(PID.TID 0000.0001)           User time:  0.31277477741241455
(PID.TID 0000.0001)         System time:   6.9990754127502441E-005
(PID.TID 0000.0001)     Wall clock time:  0.31289553642272949
(PID.TID 0000.0001)          No. starts:          20
(PID.TID 0000.0001)           No. stops:          20
(PID.TID 0000.0001)   Seconds in section "DO_STATEVARS_DIAGS  [FORWARD_STEP]":
(PID.TID 0000.0001)           User time:  0.28230375051498413
(PID.TID 0000.0001)         System time:   1.7401576042175293E-004
(PID.TID 0000.0001)     Wall clock time:  0.28251647949218750
(PID.TID 0000.0001)          No. starts:          20
(PID.TID 0000.0001)           No. stops:          20
(PID.TID 0000.0001)   Seconds in section "LOAD_FIELDS_DRIVER  [FORWARD_STEP]":
(PID.TID 0000.0001)           User time:   1.7694711685180664E-002
(PID.TID 0000.0001)         System time:   7.0035457611083984E-006
(PID.TID 0000.0001)     Wall clock time:   1.7698526382446289E-002
(PID.TID 0000.0001)          No. starts:          10
(PID.TID 0000.0001)           No. stops:          10
(PID.TID 0000.0001)   Seconds in section "EXTERNAL_FLDS_LOAD [LOAD_FLDS_DRIVER]":
(PID.TID 0000.0001)           User time:   1.7499208450317383E-002
(PID.TID 0000.0001)         System time:   6.0051679611206055E-006
(PID.TID 0000.0001)     Wall clock time:   1.7509937286376953E-002
(PID.TID 0000.0001)          No. starts:          10
(PID.TID 0000.0001)           No. stops:          10
(PID.TID 0000.0001)   Seconds in section "DO_ATMOSPHERIC_PHYS [FORWARD_STEP]":
(PID.TID 0000.0001)           User time:   8.0704689025878906E-005
(PID.TID 0000.0001)         System time:   0.0000000000000000
(PID.TID 0000.0001)     Wall clock time:   8.0108642578125000E-005
(PID.TID 0000.0001)          No. starts:          10
(PID.TID 0000.0001)           No. stops:          10
(PID.TID 0000.0001)   Seconds in section "DO_OCEANIC_PHYS     [FORWARD_STEP]":
(PID.TID 0000.0001)           User time:   4.8851264715194702
(PID.TID 0000.0001)         System time:   6.0229018330574036E-002
(PID.TID 0000.0001)     Wall clock time:   4.9459810256958008
(PID.TID 0000.0001)          No. starts:          10
(PID.TID 0000.0001)           No. stops:          10
(PID.TID 0000.0001)   Seconds in section "GMREDI_CALC_BATES_K [GMREDI_CALC_TENSOR]":
(PID.TID 0000.0001)           User time:   3.2552852630615234
(PID.TID 0000.0001)         System time:   5.1818996667861938E-002
(PID.TID 0000.0001)     Wall clock time:   3.3077001571655273
(PID.TID 0000.0001)          No. starts:         360
(PID.TID 0000.0001)           No. stops:         360
(PID.TID 0000.0001)   Seconds in section "THERMODYNAMICS      [FORWARD_STEP]":
(PID.TID 0000.0001)           User time:   2.8601326942443848
(PID.TID 0000.0001)         System time:   9.9837779998779297E-007
(PID.TID 0000.0001)     Wall clock time:   2.8606145381927490
(PID.TID 0000.0001)          No. starts:          10
(PID.TID 0000.0001)           No. stops:          10
(PID.TID 0000.0001)   Seconds in section "DYNAMICS            [FORWARD_STEP]":
(PID.TID 0000.0001)           User time:   4.1093819141387939
(PID.TID 0000.0001)         System time:   8.0019235610961914E-006
(PID.TID 0000.0001)     Wall clock time:   4.1096191406250000
(PID.TID 0000.0001)          No. starts:          10
(PID.TID 0000.0001)           No. stops:          10
(PID.TID 0000.0001)   Seconds in section "UPDATE_CG2D         [FORWARD_STEP]":
(PID.TID 0000.0001)           User time:   5.0323963165283203E-002
(PID.TID 0000.0001)         System time:   9.9837779998779297E-007
(PID.TID 0000.0001)     Wall clock time:   5.0334930419921875E-002
(PID.TID 0000.0001)          No. starts:          10
(PID.TID 0000.0001)           No. stops:          10
(PID.TID 0000.0001)   Seconds in section "SOLVE_FOR_PRESSURE  [FORWARD_STEP]":
(PID.TID 0000.0001)           User time:   1.5172023773193359
(PID.TID 0000.0001)         System time:   2.1010637283325195E-005
(PID.TID 0000.0001)     Wall clock time:   1.5172586441040039
(PID.TID 0000.0001)          No. starts:          10
(PID.TID 0000.0001)           No. stops:          10
(PID.TID 0000.0001)   Seconds in section "MOM_CORRECTION_STEP [FORWARD_STEP]":
(PID.TID 0000.0001)           User time:   9.8677635192871094E-002
(PID.TID 0000.0001)         System time:   5.8993697166442871E-005
(PID.TID 0000.0001)     Wall clock time:   9.8749160766601562E-002
(PID.TID 0000.0001)          No. starts:          10
(PID.TID 0000.0001)           No. stops:          10
(PID.TID 0000.0001)   Seconds in section "INTEGR_CONTINUITY   [FORWARD_STEP]":
(PID.TID 0000.0001)           User time:  0.13827443122863770
(PID.TID 0000.0001)         System time:   4.9918889999389648E-006
(PID.TID 0000.0001)     Wall clock time:  0.13830232620239258
(PID.TID 0000.0001)          No. starts:          10
(PID.TID 0000.0001)           No. stops:          10
(PID.TID 0000.0001)   Seconds in section "CALC_R_STAR         [FORWARD_STEP]":
(PID.TID 0000.0001)           User time:   3.6375999450683594E-002
(PID.TID 0000.0001)         System time:   0.0000000000000000
(PID.TID 0000.0001)     Wall clock time:   3.6392688751220703E-002
(PID.TID 0000.0001)          No. starts:          10
(PID.TID 0000.0001)           No. stops:          10
(PID.TID 0000.0001)   Seconds in section "TRC_CORRECTION_STEP [FORWARD_STEP]":
(PID.TID 0000.0001)           User time:   8.0585479736328125E-005
(PID.TID 0000.0001)         System time:   0.0000000000000000
(PID.TID 0000.0001)     Wall clock time:   8.1062316894531250E-005
(PID.TID 0000.0001)          No. starts:          10
(PID.TID 0000.0001)           No. stops:          10
(PID.TID 0000.0001)   Seconds in section "BLOCKING_EXCHANGES  [FORWARD_STEP]":
(PID.TID 0000.0001)           User time:  0.36056566238403320
(PID.TID 0000.0001)         System time:   9.9837779998779297E-007
(PID.TID 0000.0001)     Wall clock time:  0.36061048507690430
(PID.TID 0000.0001)          No. starts:          10
(PID.TID 0000.0001)           No. stops:          10
(PID.TID 0000.0001)   Seconds in section "MONITOR             [FORWARD_STEP]":
(PID.TID 0000.0001)           User time:  0.61893606185913086
(PID.TID 0000.0001)         System time:   0.0000000000000000
(PID.TID 0000.0001)     Wall clock time:  0.61897635459899902
(PID.TID 0000.0001)          No. starts:          10
(PID.TID 0000.0001)           No. stops:          10
(PID.TID 0000.0001)   Seconds in section "DO_THE_MODEL_IO     [FORWARD_STEP]":
(PID.TID 0000.0001)           User time:   8.6414813995361328E-002
(PID.TID 0000.0001)         System time:   2.7963995933532715E-002
(PID.TID 0000.0001)     Wall clock time:  0.11447405815124512
(PID.TID 0000.0001)          No. starts:          10
(PID.TID 0000.0001)           No. stops:          10
(PID.TID 0000.0001)   Seconds in section "DO_WRITE_PICKUP     [FORWARD_STEP]":
(PID.TID 0000.0001)           User time:  0.10068392753601074
(PID.TID 0000.0001)         System time:   4.7992005944252014E-002
(PID.TID 0000.0001)     Wall clock time:  0.14872312545776367
(PID.TID 0000.0001)          No. starts:          10
(PID.TID 0000.0001)           No. stops:          10
(PID.TID 0000.0001) // ======================================================
(PID.TID 0000.0001) // Tile <-> Tile communication statistics
(PID.TID 0000.0001) // ======================================================
(PID.TID 0000.0001) // o Tile number: 000001
(PID.TID 0000.0001) //         No. X exchanges =              0
(PID.TID 0000.0001) //            Max. X spins =              0
(PID.TID 0000.0001) //            Min. X spins =     1000000000
(PID.TID 0000.0001) //          Total. X spins =              0
(PID.TID 0000.0001) //            Avg. X spins =       0.00E+00
(PID.TID 0000.0001) //         No. Y exchanges =              0
(PID.TID 0000.0001) //            Max. Y spins =              0
(PID.TID 0000.0001) //            Min. Y spins =     1000000000
(PID.TID 0000.0001) //          Total. Y spins =              0
(PID.TID 0000.0001) //            Avg. Y spins =       0.00E+00
(PID.TID 0000.0001) // o Tile number: 000002
(PID.TID 0000.0001) //         No. X exchanges =              0
(PID.TID 0000.0001) //            Max. X spins =              0
(PID.TID 0000.0001) //            Min. X spins =     1000000000
(PID.TID 0000.0001) //          Total. X spins =              0
(PID.TID 0000.0001) //            Avg. X spins =       0.00E+00
(PID.TID 0000.0001) //         No. Y exchanges =              0
(PID.TID 0000.0001) //            Max. Y spins =              0
(PID.TID 0000.0001) //            Min. Y spins =     1000000000
(PID.TID 0000.0001) //          Total. Y spins =              0
(PID.TID 0000.0001) //            Avg. Y spins =       0.00E+00
(PID.TID 0000.0001) // o Tile number: 000003
(PID.TID 0000.0001) //         No. X exchanges =              0
(PID.TID 0000.0001) //            Max. X spins =              0
(PID.TID 0000.0001) //            Min. X spins =     1000000000
(PID.TID 0000.0001) //          Total. X spins =              0
(PID.TID 0000.0001) //            Avg. X spins =       0.00E+00
(PID.TID 0000.0001) //         No. Y exchanges =              0
(PID.TID 0000.0001) //            Max. Y spins =              0
(PID.TID 0000.0001) //            Min. Y spins =     1000000000
(PID.TID 0000.0001) //          Total. Y spins =              0
(PID.TID 0000.0001) //            Avg. Y spins =       0.00E+00
(PID.TID 0000.0001) // o Tile number: 000004
(PID.TID 0000.0001) //         No. X exchanges =              0
(PID.TID 0000.0001) //            Max. X spins =              0
(PID.TID 0000.0001) //            Min. X spins =     1000000000
(PID.TID 0000.0001) //          Total. X spins =              0
(PID.TID 0000.0001) //            Avg. X spins =       0.00E+00
(PID.TID 0000.0001) //         No. Y exchanges =              0
(PID.TID 0000.0001) //            Max. Y spins =              0
(PID.TID 0000.0001) //            Min. Y spins =     1000000000
(PID.TID 0000.0001) //          Total. Y spins =              0
(PID.TID 0000.0001) //            Avg. Y spins =       0.00E+00
(PID.TID 0000.0001) // o Tile number: 000005
(PID.TID 0000.0001) //         No. X exchanges =              0
(PID.TID 0000.0001) //            Max. X spins =              0
(PID.TID 0000.0001) //            Min. X spins =     1000000000
(PID.TID 0000.0001) //          Total. X spins =              0
(PID.TID 0000.0001) //            Avg. X spins =       0.00E+00
(PID.TID 0000.0001) //         No. Y exchanges =              0
(PID.TID 0000.0001) //            Max. Y spins =              0
(PID.TID 0000.0001) //            Min. Y spins =     1000000000
(PID.TID 0000.0001) //          Total. Y spins =              0
(PID.TID 0000.0001) //            Avg. Y spins =       0.00E+00
(PID.TID 0000.0001) // o Tile number: 000006
(PID.TID 0000.0001) //         No. X exchanges =              0
(PID.TID 0000.0001) //            Max. X spins =              0
(PID.TID 0000.0001) //            Min. X spins =     1000000000
(PID.TID 0000.0001) //          Total. X spins =              0
(PID.TID 0000.0001) //            Avg. X spins =       0.00E+00
(PID.TID 0000.0001) //         No. Y exchanges =              0
(PID.TID 0000.0001) //            Max. Y spins =              0
(PID.TID 0000.0001) //            Min. Y spins =     1000000000
(PID.TID 0000.0001) //          Total. Y spins =              0
(PID.TID 0000.0001) //            Avg. Y spins =       0.00E+00
(PID.TID 0000.0001) // o Tile number: 000007
(PID.TID 0000.0001) //         No. X exchanges =              0
(PID.TID 0000.0001) //            Max. X spins =              0
(PID.TID 0000.0001) //            Min. X spins =     1000000000
(PID.TID 0000.0001) //          Total. X spins =              0
(PID.TID 0000.0001) //            Avg. X spins =       0.00E+00
(PID.TID 0000.0001) //         No. Y exchanges =              0
(PID.TID 0000.0001) //            Max. Y spins =              0
(PID.TID 0000.0001) //            Min. Y spins =     1000000000
(PID.TID 0000.0001) //          Total. Y spins =              0
(PID.TID 0000.0001) //            Avg. Y spins =       0.00E+00
(PID.TID 0000.0001) // o Tile number: 000008
(PID.TID 0000.0001) //         No. X exchanges =              0
(PID.TID 0000.0001) //            Max. X spins =              0
(PID.TID 0000.0001) //            Min. X spins =     1000000000
(PID.TID 0000.0001) //          Total. X spins =              0
(PID.TID 0000.0001) //            Avg. X spins =       0.00E+00
(PID.TID 0000.0001) //         No. Y exchanges =              0
(PID.TID 0000.0001) //            Max. Y spins =              0
(PID.TID 0000.0001) //            Min. Y spins =     1000000000
(PID.TID 0000.0001) //          Total. Y spins =              0
(PID.TID 0000.0001) //            Avg. Y spins =       0.00E+00
(PID.TID 0000.0001) // o Tile number: 000009
(PID.TID 0000.0001) //         No. X exchanges =              0
(PID.TID 0000.0001) //            Max. X spins =              0
(PID.TID 0000.0001) //            Min. X spins =     1000000000
(PID.TID 0000.0001) //          Total. X spins =              0
(PID.TID 0000.0001) //            Avg. X spins =       0.00E+00
(PID.TID 0000.0001) //         No. Y exchanges =              0
(PID.TID 0000.0001) //            Max. Y spins =              0
(PID.TID 0000.0001) //            Min. Y spins =     1000000000
(PID.TID 0000.0001) //          Total. Y spins =              0
(PID.TID 0000.0001) //            Avg. Y spins =       0.00E+00
(PID.TID 0000.0001) // o Tile number: 000010
(PID.TID 0000.0001) //         No. X exchanges =              0
(PID.TID 0000.0001) //            Max. X spins =              0
(PID.TID 0000.0001) //            Min. X spins =     1000000000
(PID.TID 0000.0001) //          Total. X spins =              0
(PID.TID 0000.0001) //            Avg. X spins =       0.00E+00
(PID.TID 0000.0001) //         No. Y exchanges =              0
(PID.TID 0000.0001) //            Max. Y spins =              0
(PID.TID 0000.0001) //            Min. Y spins =     1000000000
(PID.TID 0000.0001) //          Total. Y spins =              0
(PID.TID 0000.0001) //            Avg. Y spins =       0.00E+00
(PID.TID 0000.0001) // o Tile number: 000011
(PID.TID 0000.0001) //         No. X exchanges =              0
(PID.TID 0000.0001) //            Max. X spins =              0
(PID.TID 0000.0001) //            Min. X spins =     1000000000
(PID.TID 0000.0001) //          Total. X spins =              0
(PID.TID 0000.0001) //            Avg. X spins =       0.00E+00
(PID.TID 0000.0001) //         No. Y exchanges =              0
(PID.TID 0000.0001) //            Max. Y spins =              0
(PID.TID 0000.0001) //            Min. Y spins =     1000000000
(PID.TID 0000.0001) //          Total. Y spins =              0
(PID.TID 0000.0001) //            Avg. Y spins =       0.00E+00
(PID.TID 0000.0001) // o Tile number: 000012
(PID.TID 0000.0001) //         No. X exchanges =              0
(PID.TID 0000.0001) //            Max. X spins =              0
(PID.TID 0000.0001) //            Min. X spins =     1000000000
(PID.TID 0000.0001) //          Total. X spins =              0
(PID.TID 0000.0001) //            Avg. X spins =       0.00E+00
(PID.TID 0000.0001) //         No. Y exchanges =              0
(PID.TID 0000.0001) //            Max. Y spins =              0
(PID.TID 0000.0001) //            Min. Y spins =     1000000000
(PID.TID 0000.0001) //          Total. Y spins =              0
(PID.TID 0000.0001) //            Avg. Y spins =       0.00E+00
(PID.TID 0000.0001) // o Tile number: 000013
(PID.TID 0000.0001) //         No. X exchanges =              0
(PID.TID 0000.0001) //            Max. X spins =              0
(PID.TID 0000.0001) //            Min. X spins =     1000000000
(PID.TID 0000.0001) //          Total. X spins =              0
(PID.TID 0000.0001) //            Avg. X spins =       0.00E+00
(PID.TID 0000.0001) //         No. Y exchanges =              0
(PID.TID 0000.0001) //            Max. Y spins =              0
(PID.TID 0000.0001) //            Min. Y spins =     1000000000
(PID.TID 0000.0001) //          Total. Y spins =              0
(PID.TID 0000.0001) //            Avg. Y spins =       0.00E+00
(PID.TID 0000.0001) // o Tile number: 000014
(PID.TID 0000.0001) //         No. X exchanges =              0
(PID.TID 0000.0001) //            Max. X spins =              0
(PID.TID 0000.0001) //            Min. X spins =     1000000000
(PID.TID 0000.0001) //          Total. X spins =              0
(PID.TID 0000.0001) //            Avg. X spins =       0.00E+00
(PID.TID 0000.0001) //         No. Y exchanges =              0
(PID.TID 0000.0001) //            Max. Y spins =              0
(PID.TID 0000.0001) //            Min. Y spins =     1000000000
(PID.TID 0000.0001) //          Total. Y spins =              0
(PID.TID 0000.0001) //            Avg. Y spins =       0.00E+00
(PID.TID 0000.0001) // o Tile number: 000015
(PID.TID 0000.0001) //         No. X exchanges =              0
(PID.TID 0000.0001) //            Max. X spins =              0
(PID.TID 0000.0001) //            Min. X spins =     1000000000
(PID.TID 0000.0001) //          Total. X spins =              0
(PID.TID 0000.0001) //            Avg. X spins =       0.00E+00
(PID.TID 0000.0001) //         No. Y exchanges =              0
(PID.TID 0000.0001) //            Max. Y spins =              0
(PID.TID 0000.0001) //            Min. Y spins =     1000000000
(PID.TID 0000.0001) //          Total. Y spins =              0
(PID.TID 0000.0001) //            Avg. Y spins =       0.00E+00
(PID.TID 0000.0001) // o Tile number: 000016
(PID.TID 0000.0001) //         No. X exchanges =              0
(PID.TID 0000.0001) //            Max. X spins =              0
(PID.TID 0000.0001) //            Min. X spins =     1000000000
(PID.TID 0000.0001) //          Total. X spins =              0
(PID.TID 0000.0001) //            Avg. X spins =       0.00E+00
(PID.TID 0000.0001) //         No. Y exchanges =              0
(PID.TID 0000.0001) //            Max. Y spins =              0
(PID.TID 0000.0001) //            Min. Y spins =     1000000000
(PID.TID 0000.0001) //          Total. Y spins =              0
(PID.TID 0000.0001) //            Avg. Y spins =       0.00E+00
(PID.TID 0000.0001) // o Tile number: 000017
(PID.TID 0000.0001) //         No. X exchanges =              0
(PID.TID 0000.0001) //            Max. X spins =              0
(PID.TID 0000.0001) //            Min. X spins =     1000000000
(PID.TID 0000.0001) //          Total. X spins =              0
(PID.TID 0000.0001) //            Avg. X spins =       0.00E+00
(PID.TID 0000.0001) //         No. Y exchanges =              0
(PID.TID 0000.0001) //            Max. Y spins =              0
(PID.TID 0000.0001) //            Min. Y spins =     1000000000
(PID.TID 0000.0001) //          Total. Y spins =              0
(PID.TID 0000.0001) //            Avg. Y spins =       0.00E+00
(PID.TID 0000.0001) // o Tile number: 000018
(PID.TID 0000.0001) //         No. X exchanges =              0
(PID.TID 0000.0001) //            Max. X spins =              0
(PID.TID 0000.0001) //            Min. X spins =     1000000000
(PID.TID 0000.0001) //          Total. X spins =              0
(PID.TID 0000.0001) //            Avg. X spins =       0.00E+00
(PID.TID 0000.0001) //         No. Y exchanges =              0
(PID.TID 0000.0001) //            Max. Y spins =              0
(PID.TID 0000.0001) //            Min. Y spins =     1000000000
(PID.TID 0000.0001) //          Total. Y spins =              0
(PID.TID 0000.0001) //            Avg. Y spins =       0.00E+00
(PID.TID 0000.0001) // o Tile number: 000019
(PID.TID 0000.0001) //         No. X exchanges =              0
(PID.TID 0000.0001) //            Max. X spins =              0
(PID.TID 0000.0001) //            Min. X spins =     1000000000
(PID.TID 0000.0001) //          Total. X spins =              0
(PID.TID 0000.0001) //            Avg. X spins =       0.00E+00
(PID.TID 0000.0001) //         No. Y exchanges =              0
(PID.TID 0000.0001) //            Max. Y spins =              0
(PID.TID 0000.0001) //            Min. Y spins =     1000000000
(PID.TID 0000.0001) //          Total. Y spins =              0
(PID.TID 0000.0001) //            Avg. Y spins =       0.00E+00
(PID.TID 0000.0001) // o Tile number: 000020
(PID.TID 0000.0001) //         No. X exchanges =              0
(PID.TID 0000.0001) //            Max. X spins =              0
(PID.TID 0000.0001) //            Min. X spins =     1000000000
(PID.TID 0000.0001) //          Total. X spins =              0
(PID.TID 0000.0001) //            Avg. X spins =       0.00E+00
(PID.TID 0000.0001) //         No. Y exchanges =              0
(PID.TID 0000.0001) //            Max. Y spins =              0
(PID.TID 0000.0001) //            Min. Y spins =     1000000000
(PID.TID 0000.0001) //          Total. Y spins =              0
(PID.TID 0000.0001) //            Avg. Y spins =       0.00E+00
(PID.TID 0000.0001) // o Tile number: 000021
(PID.TID 0000.0001) //         No. X exchanges =              0
(PID.TID 0000.0001) //            Max. X spins =              0
(PID.TID 0000.0001) //            Min. X spins =     1000000000
(PID.TID 0000.0001) //          Total. X spins =              0
(PID.TID 0000.0001) //            Avg. X spins =       0.00E+00
(PID.TID 0000.0001) //         No. Y exchanges =              0
(PID.TID 0000.0001) //            Max. Y spins =              0
(PID.TID 0000.0001) //            Min. Y spins =     1000000000
(PID.TID 0000.0001) //          Total. Y spins =              0
(PID.TID 0000.0001) //            Avg. Y spins =       0.00E+00
(PID.TID 0000.0001) // o Tile number: 000022
(PID.TID 0000.0001) //         No. X exchanges =              0
(PID.TID 0000.0001) //            Max. X spins =              0
(PID.TID 0000.0001) //            Min. X spins =     1000000000
(PID.TID 0000.0001) //          Total. X spins =              0
(PID.TID 0000.0001) //            Avg. X spins =       0.00E+00
(PID.TID 0000.0001) //         No. Y exchanges =              0
(PID.TID 0000.0001) //            Max. Y spins =              0
(PID.TID 0000.0001) //            Min. Y spins =     1000000000
(PID.TID 0000.0001) //          Total. Y spins =              0
(PID.TID 0000.0001) //            Avg. Y spins =       0.00E+00
(PID.TID 0000.0001) // o Tile number: 000023
(PID.TID 0000.0001) //         No. X exchanges =              0
(PID.TID 0000.0001) //            Max. X spins =              0
(PID.TID 0000.0001) //            Min. X spins =     1000000000
(PID.TID 0000.0001) //          Total. X spins =              0
(PID.TID 0000.0001) //            Avg. X spins =       0.00E+00
(PID.TID 0000.0001) //         No. Y exchanges =              0
(PID.TID 0000.0001) //            Max. Y spins =              0
(PID.TID 0000.0001) //            Min. Y spins =     1000000000
(PID.TID 0000.0001) //          Total. Y spins =              0
(PID.TID 0000.0001) //            Avg. Y spins =       0.00E+00
(PID.TID 0000.0001) // o Tile number: 000024
(PID.TID 0000.0001) //         No. X exchanges =              0
(PID.TID 0000.0001) //            Max. X spins =              0
(PID.TID 0000.0001) //            Min. X spins =     1000000000
(PID.TID 0000.0001) //          Total. X spins =              0
(PID.TID 0000.0001) //            Avg. X spins =       0.00E+00
(PID.TID 0000.0001) //         No. Y exchanges =              0
(PID.TID 0000.0001) //            Max. Y spins =              0
(PID.TID 0000.0001) //            Min. Y spins =     1000000000
(PID.TID 0000.0001) //          Total. Y spins =              0
(PID.TID 0000.0001) //            Avg. Y spins =       0.00E+00
(PID.TID 0000.0001) // o Tile number: 000025
(PID.TID 0000.0001) //         No. X exchanges =              0
(PID.TID 0000.0001) //            Max. X spins =              0
(PID.TID 0000.0001) //            Min. X spins =     1000000000
(PID.TID 0000.0001) //          Total. X spins =              0
(PID.TID 0000.0001) //            Avg. X spins =       0.00E+00
(PID.TID 0000.0001) //         No. Y exchanges =              0
(PID.TID 0000.0001) //            Max. Y spins =              0
(PID.TID 0000.0001) //            Min. Y spins =     1000000000
(PID.TID 0000.0001) //          Total. Y spins =              0
(PID.TID 0000.0001) //            Avg. Y spins =       0.00E+00
(PID.TID 0000.0001) // o Tile number: 000026
(PID.TID 0000.0001) //         No. X exchanges =              0
(PID.TID 0000.0001) //            Max. X spins =              0
(PID.TID 0000.0001) //            Min. X spins =     1000000000
(PID.TID 0000.0001) //          Total. X spins =              0
(PID.TID 0000.0001) //            Avg. X spins =       0.00E+00
(PID.TID 0000.0001) //         No. Y exchanges =              0
(PID.TID 0000.0001) //            Max. Y spins =              0
(PID.TID 0000.0001) //            Min. Y spins =     1000000000
(PID.TID 0000.0001) //          Total. Y spins =              0
(PID.TID 0000.0001) //            Avg. Y spins =       0.00E+00
(PID.TID 0000.0001) // o Tile number: 000027
(PID.TID 0000.0001) //         No. X exchanges =              0
(PID.TID 0000.0001) //            Max. X spins =              0
(PID.TID 0000.0001) //            Min. X spins =     1000000000
(PID.TID 0000.0001) //          Total. X spins =              0
(PID.TID 0000.0001) //            Avg. X spins =       0.00E+00
(PID.TID 0000.0001) //         No. Y exchanges =              0
(PID.TID 0000.0001) //            Max. Y spins =              0
(PID.TID 0000.0001) //            Min. Y spins =     1000000000
(PID.TID 0000.0001) //          Total. Y spins =              0
(PID.TID 0000.0001) //            Avg. Y spins =       0.00E+00
(PID.TID 0000.0001) // o Tile number: 000028
(PID.TID 0000.0001) //         No. X exchanges =              0
(PID.TID 0000.0001) //            Max. X spins =              0
(PID.TID 0000.0001) //            Min. X spins =     1000000000
(PID.TID 0000.0001) //          Total. X spins =              0
(PID.TID 0000.0001) //            Avg. X spins =       0.00E+00
(PID.TID 0000.0001) //         No. Y exchanges =              0
(PID.TID 0000.0001) //            Max. Y spins =              0
(PID.TID 0000.0001) //            Min. Y spins =     1000000000
(PID.TID 0000.0001) //          Total. Y spins =              0
(PID.TID 0000.0001) //            Avg. Y spins =       0.00E+00
(PID.TID 0000.0001) // o Tile number: 000029
(PID.TID 0000.0001) //         No. X exchanges =              0
(PID.TID 0000.0001) //            Max. X spins =              0
(PID.TID 0000.0001) //            Min. X spins =     1000000000
(PID.TID 0000.0001) //          Total. X spins =              0
(PID.TID 0000.0001) //            Avg. X spins =       0.00E+00
(PID.TID 0000.0001) //         No. Y exchanges =              0
(PID.TID 0000.0001) //            Max. Y spins =              0
(PID.TID 0000.0001) //            Min. Y spins =     1000000000
(PID.TID 0000.0001) //          Total. Y spins =              0
(PID.TID 0000.0001) //            Avg. Y spins =       0.00E+00
(PID.TID 0000.0001) // o Tile number: 000030
(PID.TID 0000.0001) //         No. X exchanges =              0
(PID.TID 0000.0001) //            Max. X spins =              0
(PID.TID 0000.0001) //            Min. X spins =     1000000000
(PID.TID 0000.0001) //          Total. X spins =              0
(PID.TID 0000.0001) //            Avg. X spins =       0.00E+00
(PID.TID 0000.0001) //         No. Y exchanges =              0
(PID.TID 0000.0001) //            Max. Y spins =              0
(PID.TID 0000.0001) //            Min. Y spins =     1000000000
(PID.TID 0000.0001) //          Total. Y spins =              0
(PID.TID 0000.0001) //            Avg. Y spins =       0.00E+00
(PID.TID 0000.0001) // o Tile number: 000031
(PID.TID 0000.0001) //         No. X exchanges =              0
(PID.TID 0000.0001) //            Max. X spins =              0
(PID.TID 0000.0001) //            Min. X spins =     1000000000
(PID.TID 0000.0001) //          Total. X spins =              0
(PID.TID 0000.0001) //            Avg. X spins =       0.00E+00
(PID.TID 0000.0001) //         No. Y exchanges =              0
(PID.TID 0000.0001) //            Max. Y spins =              0
(PID.TID 0000.0001) //            Min. Y spins =     1000000000
(PID.TID 0000.0001) //          Total. Y spins =              0
(PID.TID 0000.0001) //            Avg. Y spins =       0.00E+00
(PID.TID 0000.0001) // o Tile number: 000032
(PID.TID 0000.0001) //         No. X exchanges =              0
(PID.TID 0000.0001) //            Max. X spins =              0
(PID.TID 0000.0001) //            Min. X spins =     1000000000
(PID.TID 0000.0001) //          Total. X spins =              0
(PID.TID 0000.0001) //            Avg. X spins =       0.00E+00
(PID.TID 0000.0001) //         No. Y exchanges =              0
(PID.TID 0000.0001) //            Max. Y spins =              0
(PID.TID 0000.0001) //            Min. Y spins =     1000000000
(PID.TID 0000.0001) //          Total. Y spins =              0
(PID.TID 0000.0001) //            Avg. Y spins =       0.00E+00
(PID.TID 0000.0001) // o Tile number: 000033
(PID.TID 0000.0001) //         No. X exchanges =              0
(PID.TID 0000.0001) //            Max. X spins =              0
(PID.TID 0000.0001) //            Min. X spins =     1000000000
(PID.TID 0000.0001) //          Total. X spins =              0
(PID.TID 0000.0001) //            Avg. X spins =       0.00E+00
(PID.TID 0000.0001) //         No. Y exchanges =              0
(PID.TID 0000.0001) //            Max. Y spins =              0
(PID.TID 0000.0001) //            Min. Y spins =     1000000000
(PID.TID 0000.0001) //          Total. Y spins =              0
(PID.TID 0000.0001) //            Avg. Y spins =       0.00E+00
(PID.TID 0000.0001) // o Tile number: 000034
(PID.TID 0000.0001) //         No. X exchanges =              0
(PID.TID 0000.0001) //            Max. X spins =              0
(PID.TID 0000.0001) //            Min. X spins =     1000000000
(PID.TID 0000.0001) //          Total. X spins =              0
(PID.TID 0000.0001) //            Avg. X spins =       0.00E+00
(PID.TID 0000.0001) //         No. Y exchanges =              0
(PID.TID 0000.0001) //            Max. Y spins =              0
(PID.TID 0000.0001) //            Min. Y spins =     1000000000
(PID.TID 0000.0001) //          Total. Y spins =              0
(PID.TID 0000.0001) //            Avg. Y spins =       0.00E+00
(PID.TID 0000.0001) // o Tile number: 000035
(PID.TID 0000.0001) //         No. X exchanges =              0
(PID.TID 0000.0001) //            Max. X spins =              0
(PID.TID 0000.0001) //            Min. X spins =     1000000000
(PID.TID 0000.0001) //          Total. X spins =              0
(PID.TID 0000.0001) //            Avg. X spins =       0.00E+00
(PID.TID 0000.0001) //         No. Y exchanges =              0
(PID.TID 0000.0001) //            Max. Y spins =              0
(PID.TID 0000.0001) //            Min. Y spins =     1000000000
(PID.TID 0000.0001) //          Total. Y spins =              0
(PID.TID 0000.0001) //            Avg. Y spins =       0.00E+00
(PID.TID 0000.0001) // o Tile number: 000036
(PID.TID 0000.0001) //         No. X exchanges =              0
(PID.TID 0000.0001) //            Max. X spins =              0
(PID.TID 0000.0001) //            Min. X spins =     1000000000
(PID.TID 0000.0001) //          Total. X spins =              0
(PID.TID 0000.0001) //            Avg. X spins =       0.00E+00
(PID.TID 0000.0001) //         No. Y exchanges =              0
(PID.TID 0000.0001) //            Max. Y spins =              0
(PID.TID 0000.0001) //            Min. Y spins =     1000000000
(PID.TID 0000.0001) //          Total. Y spins =              0
(PID.TID 0000.0001) //            Avg. Y spins =       0.00E+00
(PID.TID 0000.0001) // o Thread number: 000001
(PID.TID 0000.0001) //            No. barriers =          17446
(PID.TID 0000.0001) //      Max. barrier spins =              1
(PID.TID 0000.0001) //      Min. barrier spins =              1
(PID.TID 0000.0001) //     Total barrier spins =          17446
(PID.TID 0000.0001) //      Avg. barrier spins =       1.00E+00
PROGRAM MAIN: Execution ended Normally
