(PID.TID 0000.0001) 
(PID.TID 0000.0001) // ======================================================
(PID.TID 0000.0001) //                      MITgcm UV
(PID.TID 0000.0001) //                      =========
(PID.TID 0000.0001) // ======================================================
(PID.TID 0000.0001) // execution environment starting up...
(PID.TID 0000.0001) 
(PID.TID 0000.0001) // MITgcmUV version:  checkpoint64q
(PID.TID 0000.0001) // Build user:        gforget
(PID.TID 0000.0001) // Build host:        baudelaire
(PID.TID 0000.0001) // Build date:        Tue Jan 14 12:12:33 EST 2014
(PID.TID 0000.0001) 
(PID.TID 0000.0001) // =======================================================
(PID.TID 0000.0001) // Execution Environment parameter file "eedata"
(PID.TID 0000.0001) // =======================================================
(PID.TID 0000.0001) ># Example "eedata" file
(PID.TID 0000.0001) ># Lines beginning "#" are comments
(PID.TID 0000.0001) ># nTx - No. threads per process in X
(PID.TID 0000.0001) ># nTy - No. threads per process in Y
(PID.TID 0000.0001) > &EEPARMS
(PID.TID 0000.0001) > useCubedSphereExchange=.TRUE.,
(PID.TID 0000.0001) > nTx=1,
(PID.TID 0000.0001) > nTy=1,
(PID.TID 0000.0001) > /
(PID.TID 0000.0001) ># Note: Some systems use & as the
(PID.TID 0000.0001) ># namelist terminator. Other systems
(PID.TID 0000.0001) ># use a / character (as shown here).
(PID.TID 0000.0001) 
(PID.TID 0000.0001) // =======================================================
(PID.TID 0000.0001) // Computational Grid Specification ( see files "SIZE.h" )
(PID.TID 0000.0001) //                                  ( and "eedata"       )
(PID.TID 0000.0001) // =======================================================
(PID.TID 0000.0001)      nPx =    1 ; /* No. processes in X */
(PID.TID 0000.0001)      nPy =    1 ; /* No. processes in Y */
(PID.TID 0000.0001)      nSx =   24 ; /* No. tiles in X per process */
(PID.TID 0000.0001)      nSy =    1 ; /* No. tiles in Y per process */
(PID.TID 0000.0001)      sNx =   16 ; /* Tile size in X */
(PID.TID 0000.0001)      sNy =   16 ; /* Tile size in Y */
(PID.TID 0000.0001)      OLx =    4 ; /* Tile overlap distance in X */
(PID.TID 0000.0001)      OLy =    4 ; /* Tile overlap distance in Y */
(PID.TID 0000.0001)      nTx =    1 ; /* No. threads in X per process */
(PID.TID 0000.0001)      nTy =    1 ; /* No. threads in Y per process */
(PID.TID 0000.0001)       Nr =   50 ; /* No. levels in the vertical   */
(PID.TID 0000.0001)       Nx =  384 ; /* Total domain size in X ( = nPx*nSx*sNx ) */
(PID.TID 0000.0001)       Ny =   16 ; /* Total domain size in Y ( = nPy*nSy*sNy ) */
(PID.TID 0000.0001)   nTiles =   24 ; /* Total no. tiles per process ( = nSx*nSy ) */
(PID.TID 0000.0001)   nProcs =    1 ; /* Total no. processes ( = nPx*nPy ) */
(PID.TID 0000.0001) nThreads =    1 ; /* Total no. threads per process ( = nTx*nTy ) */
(PID.TID 0000.0001) usingMPI =    F ; /* Flag used to control whether MPI is in use */
(PID.TID 0000.0001)                   /*  note: To execute a program with MPI calls */
(PID.TID 0000.0001)                   /*  it must be launched appropriately e.g     */
(PID.TID 0000.0001)                   /*  "mpirun -np 64 ......"                    */
(PID.TID 0000.0001) useCoupler=    F ;/* Flag used to control communications with   */
(PID.TID 0000.0001)                   /*  other model components, through a coupler */
(PID.TID 0000.0001) debugMode =    F ; /* print debug msg. (sequence of S/R calls)  */
(PID.TID 0000.0001) printMapIncludesZeros=    F ; /* print zeros in Std.Output maps */
(PID.TID 0000.0001) maxLengthPrt1D=   65 /* maxLength of 1D array printed to StdOut */
(PID.TID 0000.0001) 
(PID.TID 0000.0001) // ======================================================
(PID.TID 0000.0001) // Mapping of tiles to threads
(PID.TID 0000.0001) // ======================================================
(PID.TID 0000.0001) // -o- Thread   1, tiles (   1:  24,   1:   1)
(PID.TID 0000.0001) 
(PID.TID 0000.0001) W2_READPARMS: opening data.exch2
(PID.TID 0000.0001)  OPEN_COPY_DATA_FILE: opening file data.exch2
(PID.TID 0000.0001) // =======================================================
(PID.TID 0000.0001) // Parameter file "data.exch2"
(PID.TID 0000.0001) // =======================================================
(PID.TID 0000.0001) ># EXCH2 Package: Wrapper-2 User Choice
(PID.TID 0000.0001) >#--------------------
(PID.TID 0000.0001) >#  preDefTopol   :: pre-defined Topology selector:
(PID.TID 0000.0001) >#                :: = 0 : topology defined from processing "data.exch2";
(PID.TID 0000.0001) >#                :: = 1 : simple, single facet topology;
(PID.TID 0000.0001) >#                :: = 2 : customized topology (w2_set_myown_facets)
(PID.TID 0000.0001) >#                :: = 3 : 6-facet Cube (3 face-dims: nRed, nGreen, nBlue).
(PID.TID 0000.0001) >#  dimsFacets    :: facet pair of dimensions (n1x,n1y, n2x,n2y ...)
(PID.TID 0000.0001) >#  facetEdgeLink :: Face-Edge connectivity map:
(PID.TID 0000.0001) >#    facetEdgeLink(i,j)=XX.1 : face(j)-edge(i) (i=1,2,3,4 <==> N,S,E,W)
(PID.TID 0000.0001) >#    is connected to Northern edge of face "XX" ; similarly,
(PID.TID 0000.0001) >#    = XX.2 : to Southern.E, XX.3 = Eastern.E, XX.4 = Western.E of face "XX"
(PID.TID 0000.0001) >#  blankList     :: List of "blank" tiles
(PID.TID 0000.0001) >#  W2_mapIO      :: global map IO selector (-1 = old type ; 0 = 1 long line in X
(PID.TID 0000.0001) >#                :: 1 = compact, mostly in Y dir)
(PID.TID 0000.0001) >#  W2_printMsg   :: option for information messages printing
(PID.TID 0000.0001) >#                :: <0 : write to log file ; =0 : minimum print ;
(PID.TID 0000.0001) >#                :: =1 : no duplicated print ; =2 : all processes do print
(PID.TID 0000.0001) >#--------------------
(PID.TID 0000.0001) > &W2_EXCH2_PARM01
(PID.TID 0000.0001) >  W2_printMsg= 0,
(PID.TID 0000.0001) >  W2_mapIO   = 1,
(PID.TID 0000.0001) >  preDefTopol=0,
(PID.TID 0000.0001) >  dimsFacets(1:12) = 32, 32, 32, 32, 32, 32, 32, 32, 32, 32, 32, 32,
(PID.TID 0000.0001) >  facetEdgeLink(1:4,1)= 3.4, 6.1, 2.4, 5.1,
(PID.TID 0000.0001) >  facetEdgeLink(1:4,2)= 3.2, 6.3, 4.2, 1.3,
(PID.TID 0000.0001) >  facetEdgeLink(1:4,3)= 5.4, 2.1, 4.4, 1.1,
(PID.TID 0000.0001) >  facetEdgeLink(1:4,4)= 5.2, 2.3, 6.2, 3.3,
(PID.TID 0000.0001) >  facetEdgeLink(1:4,5)= 1.4, 4.1, 6.4, 3.1,
(PID.TID 0000.0001) >  facetEdgeLink(1:4,6)= 1.2, 4.3, 2.2, 5.3,
(PID.TID 0000.0001) >#when using bathy_north.bin:
(PID.TID 0000.0001) >#  blankList=1,2,5,6,14,16,18,20,21,22,23,24,
(PID.TID 0000.0001) >#when using bathy_south.bin:
(PID.TID 0000.0001) ># blankList=3,4,7,8,9,10,11,12,13,15,17,19,
(PID.TID 0000.0001) > /
(PID.TID 0000.0001) 
(PID.TID 0000.0001) W2_READPARMS: finished reading data.exch2
(PID.TID 0000.0001) W2_useE2ioLayOut=    T ;/* T: use Exch2 glob IO map; F: use model default */
(PID.TID 0000.0001) W2_mapIO        =   1 ; /* select option for Exch2 global-IO map */
(PID.TID 0000.0001) W2_printMsg     =   0 ; /* select option for printing information */
(PID.TID 0000.0001) ===== Start setting W2 TOPOLOGY:
(PID.TID 0000.0001) W2_E2SETUP: number of Active Tiles =      24
(PID.TID 0000.0001) W2_E2SETUP: number of Blank Tiles  =       0
(PID.TID 0000.0001) W2_E2SETUP: Total number of Tiles  =      24
(PID.TID 0000.0001) W2_SET_GEN_FACETS: preDefTopol=  0 selected
(PID.TID 0000.0001) W2_SET_GEN_FACETS: Number of facets =  6 (inferred from "dimsFacets")
(PID.TID 0000.0001) W2_E2SETUP: Total number of Facets =       6
(PID.TID 0000.0001) W2_SET_F2F_INDEX: index matrix for connected Facet-Edges:
(PID.TID 0000.0001) W2_SET_MAP_TILES: tile mapping within facet and global Map:
(PID.TID 0000.0001)  W2_mapIO =   32 (=    2*sNx)
(PID.TID 0000.0001)  Global Map (IO): X-size=      32 , Y-size=     192
(PID.TID 0000.0001) W2_SET_MAP_TILES: tile offset within facet and global Map:
- facet  1 : X-size=    32 , Y-size=    32 ;    4 tiles (Tx,Ty=   2,   2)
- facet  2 : X-size=    32 , Y-size=    32 ;    4 tiles (Tx,Ty=   2,   2)
- facet  3 : X-size=    32 , Y-size=    32 ;    4 tiles (Tx,Ty=   2,   2)
- facet  4 : X-size=    32 , Y-size=    32 ;    4 tiles (Tx,Ty=   2,   2)
- facet  5 : X-size=    32 , Y-size=    32 ;    4 tiles (Tx,Ty=   2,   2)
- facet  6 : X-size=    32 , Y-size=    32 ;    4 tiles (Tx,Ty=   2,   2)
(PID.TID 0000.0001) W2_SET_MAP_CUMSUM: setting Facet Matrix for CUMUL-SUM
(PID.TID 0000.0001) W2_SET_MAP_CUMSUM: set    5 /   6 active facets (pass,type=   1, 1)
 Facet Matrix for CUMUL-SUM (nFacets=   6, nActive=   6 ):
- facet  1 :  0  0 ,  0  0 ,  0  0 ,  0  0 ,  0  0 ,  0  0 ,
- facet  2 :  1  0 ,  0  0 ,  0  0 ,  0  0 ,  0  0 ,  0  0 ,
- facet  3 :  1  0 ,  0  1 ,  0  0 ,  0  0 ,  0  0 ,  0  0 ,
- facet  4 :  1  0 ,  0  1 ,  1  0 ,  0  0 ,  0  0 ,  0  0 ,
- facet  5 :  1  0 ,  0  1 ,  1  0 ,  0  1 ,  0  0 ,  0  0 ,
- facet  6 :  1  0 ,  0  1 ,  1  0 ,  0  1 ,  1  0 ,  0  0 ,
 missing-corner Tile for CUMUL-SUM (nTiles=    24 ): W2_tMC1=     3 , W2_tMC2=     6
(PID.TID 0000.0001) W2_SET_MAP_CUMSUM: done (skip Tile Matrix setting)
(PID.TID 0000.0001) W2_SET_TILE2TILES: tile neighbours and index connection:
(PID.TID 0000.0001) current Max.Nb.Neighbours (e.g., on tile    1 ) =  4
(PID.TID 0000.0001) ===== W2 TILE TOPOLOGY =====
(PID.TID 0000.0001)  TILE:     1 , Nb of Neighbours =  4
(PID.TID 0000.0001)     NEIGHBOUR  1 = TILE    3 (n=  2) Comm = PUT (PROC=    1)
(PID.TID 0000.0001)     NEIGHBOUR  2 = TILE   23 (n=  1) Comm = PUT (PROC=    1)
(PID.TID 0000.0001)     NEIGHBOUR  3 = TILE    2 (n=  4) Comm = PUT (PROC=    1)
(PID.TID 0000.0001)     NEIGHBOUR  4 = TILE   20 (n=  1) Comm = PUT (PROC=    1)
(PID.TID 0000.0001)  TILE:     2 , Nb of Neighbours =  4
(PID.TID 0000.0001)     NEIGHBOUR  1 = TILE    4 (n=  2) Comm = PUT (PROC=    1)
(PID.TID 0000.0001)     NEIGHBOUR  2 = TILE   24 (n=  1) Comm = PUT (PROC=    1)
(PID.TID 0000.0001)     NEIGHBOUR  3 = TILE    5 (n=  4) Comm = PUT (PROC=    1)
(PID.TID 0000.0001)     NEIGHBOUR  4 = TILE    1 (n=  3) Comm = PUT (PROC=    1)
(PID.TID 0000.0001)  TILE:     3 , Nb of Neighbours =  4
(PID.TID 0000.0001)     NEIGHBOUR  1 = TILE   11 (n=  4) Comm = PUT (PROC=    1)
(PID.TID 0000.0001)     NEIGHBOUR  2 = TILE    1 (n=  1) Comm = PUT (PROC=    1)
(PID.TID 0000.0001)     NEIGHBOUR  3 = TILE    4 (n=  4) Comm = PUT (PROC=    1)
(PID.TID 0000.0001)     NEIGHBOUR  4 = TILE   19 (n=  1) Comm = PUT (PROC=    1)
(PID.TID 0000.0001)  TILE:     4 , Nb of Neighbours =  4
(PID.TID 0000.0001)     NEIGHBOUR  1 = TILE    9 (n=  4) Comm = PUT (PROC=    1)
(PID.TID 0000.0001)     NEIGHBOUR  2 = TILE    2 (n=  1) Comm = PUT (PROC=    1)
(PID.TID 0000.0001)     NEIGHBOUR  3 = TILE    7 (n=  4) Comm = PUT (PROC=    1)
(PID.TID 0000.0001)     NEIGHBOUR  4 = TILE    3 (n=  3) Comm = PUT (PROC=    1)
(PID.TID 0000.0001)  TILE:     5 , Nb of Neighbours =  4
(PID.TID 0000.0001)     NEIGHBOUR  1 = TILE    7 (n=  2) Comm = PUT (PROC=    1)
(PID.TID 0000.0001)     NEIGHBOUR  2 = TILE   24 (n=  3) Comm = PUT (PROC=    1)
(PID.TID 0000.0001)     NEIGHBOUR  3 = TILE    6 (n=  4) Comm = PUT (PROC=    1)
(PID.TID 0000.0001)     NEIGHBOUR  4 = TILE    2 (n=  3) Comm = PUT (PROC=    1)
(PID.TID 0000.0001)  TILE:     6 , Nb of Neighbours =  4
(PID.TID 0000.0001)     NEIGHBOUR  1 = TILE    8 (n=  2) Comm = PUT (PROC=    1)
(PID.TID 0000.0001)     NEIGHBOUR  2 = TILE   22 (n=  3) Comm = PUT (PROC=    1)
(PID.TID 0000.0001)     NEIGHBOUR  3 = TILE   14 (n=  2) Comm = PUT (PROC=    1)
(PID.TID 0000.0001)     NEIGHBOUR  4 = TILE    5 (n=  3) Comm = PUT (PROC=    1)
(PID.TID 0000.0001)  TILE:     7 , Nb of Neighbours =  4
(PID.TID 0000.0001)     NEIGHBOUR  1 = TILE    9 (n=  2) Comm = PUT (PROC=    1)
(PID.TID 0000.0001)     NEIGHBOUR  2 = TILE    5 (n=  1) Comm = PUT (PROC=    1)
(PID.TID 0000.0001)     NEIGHBOUR  3 = TILE    8 (n=  4) Comm = PUT (PROC=    1)
(PID.TID 0000.0001)     NEIGHBOUR  4 = TILE    4 (n=  3) Comm = PUT (PROC=    1)
(PID.TID 0000.0001)  TILE:     8 , Nb of Neighbours =  4
(PID.TID 0000.0001)     NEIGHBOUR  1 = TILE   10 (n=  2) Comm = PUT (PROC=    1)
(PID.TID 0000.0001)     NEIGHBOUR  2 = TILE    6 (n=  1) Comm = PUT (PROC=    1)
(PID.TID 0000.0001)     NEIGHBOUR  3 = TILE   13 (n=  2) Comm = PUT (PROC=    1)
(PID.TID 0000.0001)     NEIGHBOUR  4 = TILE    7 (n=  3) Comm = PUT (PROC=    1)
(PID.TID 0000.0001)  TILE:     9 , Nb of Neighbours =  4
(PID.TID 0000.0001)     NEIGHBOUR  1 = TILE   11 (n=  2) Comm = PUT (PROC=    1)
(PID.TID 0000.0001)     NEIGHBOUR  2 = TILE    7 (n=  1) Comm = PUT (PROC=    1)
(PID.TID 0000.0001)     NEIGHBOUR  3 = TILE   10 (n=  4) Comm = PUT (PROC=    1)
(PID.TID 0000.0001)     NEIGHBOUR  4 = TILE    4 (n=  1) Comm = PUT (PROC=    1)
(PID.TID 0000.0001)  TILE:    10 , Nb of Neighbours =  4
(PID.TID 0000.0001)     NEIGHBOUR  1 = TILE   12 (n=  2) Comm = PUT (PROC=    1)
(PID.TID 0000.0001)     NEIGHBOUR  2 = TILE    8 (n=  1) Comm = PUT (PROC=    1)
(PID.TID 0000.0001)     NEIGHBOUR  3 = TILE   13 (n=  4) Comm = PUT (PROC=    1)
(PID.TID 0000.0001)     NEIGHBOUR  4 = TILE    9 (n=  3) Comm = PUT (PROC=    1)
(PID.TID 0000.0001)  TILE:    11 , Nb of Neighbours =  4
(PID.TID 0000.0001)     NEIGHBOUR  1 = TILE   19 (n=  4) Comm = PUT (PROC=    1)
(PID.TID 0000.0001)     NEIGHBOUR  2 = TILE    9 (n=  1) Comm = PUT (PROC=    1)
(PID.TID 0000.0001)     NEIGHBOUR  3 = TILE   12 (n=  4) Comm = PUT (PROC=    1)
(PID.TID 0000.0001)     NEIGHBOUR  4 = TILE    3 (n=  1) Comm = PUT (PROC=    1)
(PID.TID 0000.0001)  TILE:    12 , Nb of Neighbours =  4
(PID.TID 0000.0001)     NEIGHBOUR  1 = TILE   17 (n=  4) Comm = PUT (PROC=    1)
(PID.TID 0000.0001)     NEIGHBOUR  2 = TILE   10 (n=  1) Comm = PUT (PROC=    1)
(PID.TID 0000.0001)     NEIGHBOUR  3 = TILE   15 (n=  4) Comm = PUT (PROC=    1)
(PID.TID 0000.0001)     NEIGHBOUR  4 = TILE   11 (n=  3) Comm = PUT (PROC=    1)
(PID.TID 0000.0001)  TILE:    13 , Nb of Neighbours =  4
(PID.TID 0000.0001)     NEIGHBOUR  1 = TILE   15 (n=  2) Comm = PUT (PROC=    1)
(PID.TID 0000.0001)     NEIGHBOUR  2 = TILE    8 (n=  3) Comm = PUT (PROC=    1)
(PID.TID 0000.0001)     NEIGHBOUR  3 = TILE   14 (n=  4) Comm = PUT (PROC=    1)
(PID.TID 0000.0001)     NEIGHBOUR  4 = TILE   10 (n=  3) Comm = PUT (PROC=    1)
(PID.TID 0000.0001)  TILE:    14 , Nb of Neighbours =  4
(PID.TID 0000.0001)     NEIGHBOUR  1 = TILE   16 (n=  2) Comm = PUT (PROC=    1)
(PID.TID 0000.0001)     NEIGHBOUR  2 = TILE    6 (n=  3) Comm = PUT (PROC=    1)
(PID.TID 0000.0001)     NEIGHBOUR  3 = TILE   22 (n=  2) Comm = PUT (PROC=    1)
(PID.TID 0000.0001)     NEIGHBOUR  4 = TILE   13 (n=  3) Comm = PUT (PROC=    1)
(PID.TID 0000.0001)  TILE:    15 , Nb of Neighbours =  4
(PID.TID 0000.0001)     NEIGHBOUR  1 = TILE   17 (n=  2) Comm = PUT (PROC=    1)
(PID.TID 0000.0001)     NEIGHBOUR  2 = TILE   13 (n=  1) Comm = PUT (PROC=    1)
(PID.TID 0000.0001)     NEIGHBOUR  3 = TILE   16 (n=  4) Comm = PUT (PROC=    1)
(PID.TID 0000.0001)     NEIGHBOUR  4 = TILE   12 (n=  3) Comm = PUT (PROC=    1)
(PID.TID 0000.0001)  TILE:    16 , Nb of Neighbours =  4
(PID.TID 0000.0001)     NEIGHBOUR  1 = TILE   18 (n=  2) Comm = PUT (PROC=    1)
(PID.TID 0000.0001)     NEIGHBOUR  2 = TILE   14 (n=  1) Comm = PUT (PROC=    1)
(PID.TID 0000.0001)     NEIGHBOUR  3 = TILE   21 (n=  2) Comm = PUT (PROC=    1)
(PID.TID 0000.0001)     NEIGHBOUR  4 = TILE   15 (n=  3) Comm = PUT (PROC=    1)
(PID.TID 0000.0001)  TILE:    17 , Nb of Neighbours =  4
(PID.TID 0000.0001)     NEIGHBOUR  1 = TILE   19 (n=  2) Comm = PUT (PROC=    1)
(PID.TID 0000.0001)     NEIGHBOUR  2 = TILE   15 (n=  1) Comm = PUT (PROC=    1)
(PID.TID 0000.0001)     NEIGHBOUR  3 = TILE   18 (n=  4) Comm = PUT (PROC=    1)
(PID.TID 0000.0001)     NEIGHBOUR  4 = TILE   12 (n=  1) Comm = PUT (PROC=    1)
(PID.TID 0000.0001)  TILE:    18 , Nb of Neighbours =  4
(PID.TID 0000.0001)     NEIGHBOUR  1 = TILE   20 (n=  2) Comm = PUT (PROC=    1)
(PID.TID 0000.0001)     NEIGHBOUR  2 = TILE   16 (n=  1) Comm = PUT (PROC=    1)
(PID.TID 0000.0001)     NEIGHBOUR  3 = TILE   21 (n=  4) Comm = PUT (PROC=    1)
(PID.TID 0000.0001)     NEIGHBOUR  4 = TILE   17 (n=  3) Comm = PUT (PROC=    1)
(PID.TID 0000.0001)  TILE:    19 , Nb of Neighbours =  4
(PID.TID 0000.0001)     NEIGHBOUR  1 = TILE    3 (n=  4) Comm = PUT (PROC=    1)
(PID.TID 0000.0001)     NEIGHBOUR  2 = TILE   17 (n=  1) Comm = PUT (PROC=    1)
(PID.TID 0000.0001)     NEIGHBOUR  3 = TILE   20 (n=  4) Comm = PUT (PROC=    1)
(PID.TID 0000.0001)     NEIGHBOUR  4 = TILE   11 (n=  1) Comm = PUT (PROC=    1)
(PID.TID 0000.0001)  TILE:    20 , Nb of Neighbours =  4
(PID.TID 0000.0001)     NEIGHBOUR  1 = TILE    1 (n=  4) Comm = PUT (PROC=    1)
(PID.TID 0000.0001)     NEIGHBOUR  2 = TILE   18 (n=  1) Comm = PUT (PROC=    1)
(PID.TID 0000.0001)     NEIGHBOUR  3 = TILE   23 (n=  4) Comm = PUT (PROC=    1)
(PID.TID 0000.0001)     NEIGHBOUR  4 = TILE   19 (n=  3) Comm = PUT (PROC=    1)
(PID.TID 0000.0001)  TILE:    21 , Nb of Neighbours =  4
(PID.TID 0000.0001)     NEIGHBOUR  1 = TILE   23 (n=  2) Comm = PUT (PROC=    1)
(PID.TID 0000.0001)     NEIGHBOUR  2 = TILE   16 (n=  3) Comm = PUT (PROC=    1)
(PID.TID 0000.0001)     NEIGHBOUR  3 = TILE   22 (n=  4) Comm = PUT (PROC=    1)
(PID.TID 0000.0001)     NEIGHBOUR  4 = TILE   18 (n=  3) Comm = PUT (PROC=    1)
(PID.TID 0000.0001)  TILE:    22 , Nb of Neighbours =  4
(PID.TID 0000.0001)     NEIGHBOUR  1 = TILE   24 (n=  2) Comm = PUT (PROC=    1)
(PID.TID 0000.0001)     NEIGHBOUR  2 = TILE   14 (n=  3) Comm = PUT (PROC=    1)
(PID.TID 0000.0001)     NEIGHBOUR  3 = TILE    6 (n=  2) Comm = PUT (PROC=    1)
(PID.TID 0000.0001)     NEIGHBOUR  4 = TILE   21 (n=  3) Comm = PUT (PROC=    1)
(PID.TID 0000.0001)  TILE:    23 , Nb of Neighbours =  4
(PID.TID 0000.0001)     NEIGHBOUR  1 = TILE    1 (n=  2) Comm = PUT (PROC=    1)
(PID.TID 0000.0001)     NEIGHBOUR  2 = TILE   21 (n=  1) Comm = PUT (PROC=    1)
(PID.TID 0000.0001)     NEIGHBOUR  3 = TILE   24 (n=  4) Comm = PUT (PROC=    1)
(PID.TID 0000.0001)     NEIGHBOUR  4 = TILE   20 (n=  3) Comm = PUT (PROC=    1)
(PID.TID 0000.0001)  TILE:    24 , Nb of Neighbours =  4
(PID.TID 0000.0001)     NEIGHBOUR  1 = TILE    2 (n=  2) Comm = PUT (PROC=    1)
(PID.TID 0000.0001)     NEIGHBOUR  2 = TILE   22 (n=  1) Comm = PUT (PROC=    1)
(PID.TID 0000.0001)     NEIGHBOUR  3 = TILE    5 (n=  2) Comm = PUT (PROC=    1)
(PID.TID 0000.0001)     NEIGHBOUR  4 = TILE   23 (n=  3) Comm = PUT (PROC=    1)
(PID.TID 0000.0001) =====       setting W2 TOPOLOGY: Done
(PID.TID 0000.0001) 
(PID.TID 0000.0001)  INI_PARMS: opening model parameter file "data"
(PID.TID 0000.0001)  OPEN_COPY_DATA_FILE: opening file data
(PID.TID 0000.0001) // =======================================================
(PID.TID 0000.0001) // Parameter file "data"
(PID.TID 0000.0001) // =======================================================
(PID.TID 0000.0001) ># ====================
(PID.TID 0000.0001) ># | Model parameters |
(PID.TID 0000.0001) ># ====================
(PID.TID 0000.0001) >#
(PID.TID 0000.0001) ># Continuous equation parameters
(PID.TID 0000.0001) > &PARM01
(PID.TID 0000.0001) > tRef               = 3*23.,3*22.,21.,2*20.,19.,2*18.,17.,2*16.,15.,14.,13.,
(PID.TID 0000.0001) >                      12.,11.,2*9.,8.,7.,2*6.,2*5.,3*4.,3*3.,4*2.,12*1.,
(PID.TID 0000.0001) > sRef               = 50*34.5,
(PID.TID 0000.0001) > no_slip_sides  = .TRUE.,
(PID.TID 0000.0001) > no_slip_bottom = .TRUE.,
(PID.TID 0000.0001) >#
(PID.TID 0000.0001) > viscAr=1.E-3,
(PID.TID 0000.0001) >#
(PID.TID 0000.0001) > viscAh=1.E0,
(PID.TID 0000.0001) > viscAhGrid=2.E-2,
(PID.TID 0000.0001) ># viscAh=2.0e4,
(PID.TID 0000.0001) >#
(PID.TID 0000.0001) > diffKhT=1.E1,
(PID.TID 0000.0001) > diffKrT=1.E-5,
(PID.TID 0000.0001) > diffKhS=1.E1,
(PID.TID 0000.0001) > diffKrS=1.E-5,
(PID.TID 0000.0001) >#
(PID.TID 0000.0001) >### diffKrBL79surf=0.1E-4,
(PID.TID 0000.0001) >### diffKrBL79deep=1.0E-4,
(PID.TID 0000.0001) > bottomDragQuadratic = 0.001,
(PID.TID 0000.0001) >#when using ggl90
(PID.TID 0000.0001) > ivdc_kappa=10.,
(PID.TID 0000.0001) > implicitDiffusion=.TRUE.,
(PID.TID 0000.0001) > implicitViscosity=.TRUE.,
(PID.TID 0000.0001) > useRealFreshWaterFlux=.TRUE.,
(PID.TID 0000.0001) ># balanceThetaClimRelax=.TRUE.,
(PID.TID 0000.0001) > balanceSaltClimRelax=.TRUE.,
(PID.TID 0000.0001) > balanceEmPmR=.TRUE.,
(PID.TID 0000.0001) ># balanceQnet=.TRUE.,
(PID.TID 0000.0001) > allowFreezing=.FALSE.,
(PID.TID 0000.0001) >### hFacInf=0.2,
(PID.TID 0000.0001) >### hFacSup=2.0,
(PID.TID 0000.0001) > hFacMin=.2,
(PID.TID 0000.0001) > hFacMinDr=5.,
(PID.TID 0000.0001) > select_rStar=2,
(PID.TID 0000.0001) > nonlinFreeSurf=2,
(PID.TID 0000.0001) > gravity=9.81,
(PID.TID 0000.0001) > rhonil=1029.,
(PID.TID 0000.0001) > rhoConst=1029.,
(PID.TID 0000.0001) > rhoConstFresh=1000.,
(PID.TID 0000.0001) > convertFW2Salt=-1.,
(PID.TID 0000.0001) > eosType='JMD95Z',
(PID.TID 0000.0001) > implicitFreeSurface=.TRUE.,
(PID.TID 0000.0001) > exactConserv=.TRUE.,
(PID.TID 0000.0001) > useSingleCpuIO=.TRUE.,
(PID.TID 0000.0001) > tempAdvScheme=30,
(PID.TID 0000.0001) > saltAdvScheme=30,
(PID.TID 0000.0001) > tempVertAdvScheme=3,
(PID.TID 0000.0001) > saltVertAdvScheme=3,
(PID.TID 0000.0001) > tempImplVertAdv=.TRUE.,
(PID.TID 0000.0001) > saltImplVertAdv=.TRUE.,
(PID.TID 0000.0001) > staggerTimeStep=.TRUE.,
(PID.TID 0000.0001) > vectorInvariantMomentum=.TRUE.,
(PID.TID 0000.0001) >#when using the cd scheme:
(PID.TID 0000.0001) ># useCDscheme=.TRUE.,
(PID.TID 0000.0001) > useJamartWetPoints=.TRUE.,
(PID.TID 0000.0001) > readBinaryPrec=32,
(PID.TID 0000.0001) > writeBinaryPrec=32,
(PID.TID 0000.0001) > debugLevel=1,
(PID.TID 0000.0001) > /
(PID.TID 0000.0001) >
(PID.TID 0000.0001) ># Elliptic solver parameters
(PID.TID 0000.0001) > &PARM02
(PID.TID 0000.0001) > cg2dMaxIters=300,
(PID.TID 0000.0001) > cg2dTargetResWunit=1.E-12,
(PID.TID 0000.0001) > /
(PID.TID 0000.0001) >
(PID.TID 0000.0001) ># Time stepping parameters
(PID.TID 0000.0001) > &PARM03
(PID.TID 0000.0001) > nIter0=0,
(PID.TID 0000.0001) >#2 lev2 for testing:
(PID.TID 0000.0001) > nTimeSteps=8,
(PID.TID 0000.0001) >#60 years with 1h dt
(PID.TID 0000.0001) >#nTimeSteps=525985,
(PID.TID 0000.0001) >#
(PID.TID 0000.0001) > forcing_In_AB=.FALSE.,
(PID.TID 0000.0001) > momDissip_In_AB=.FALSE.,
(PID.TID 0000.0001) >#when using the cd scheme:
(PID.TID 0000.0001) ># epsAB_CD = 0.25,
(PID.TID 0000.0001) ># tauCD=172800.0,
(PID.TID 0000.0001) > deltaTmom   =3600.,
(PID.TID 0000.0001) > deltaTtracer=3600.,
(PID.TID 0000.0001) > deltaTfreesurf=3600.,
(PID.TID 0000.0001) > deltaTClock =3600.,
(PID.TID 0000.0001) >#when using ab2:
(PID.TID 0000.0001) ># abEps = 0.1,
(PID.TID 0000.0001) >#when using ab3:
(PID.TID 0000.0001) > doAB_onGtGs=.FALSE.,
(PID.TID 0000.0001) > alph_AB=0.5,
(PID.TID 0000.0001) > beta_AB=0.281105,
(PID.TID 0000.0001) >#
(PID.TID 0000.0001) > pChkptFreq  =31536000.0,
(PID.TID 0000.0001) > chkptFreq   =31536000.0,
(PID.TID 0000.0001) ># taveFreq    =31536000.0,
(PID.TID 0000.0001) ># dumpFreq    =31536000.0,
(PID.TID 0000.0001) ># monitorFreq = 6307200.0,
(PID.TID 0000.0001) > monitorFreq = 7200.0,
(PID.TID 0000.0001) > dumpInitAndLast = .TRUE.,
(PID.TID 0000.0001) > adjDumpFreq = 31536000.0,
(PID.TID 0000.0001) > adjMonitorFreq = 864000.0,
(PID.TID 0000.0001) > pickupStrictlyMatch=.FALSE.,
(PID.TID 0000.0001) > /
(PID.TID 0000.0001) >
(PID.TID 0000.0001) ># Gridding parameters
(PID.TID 0000.0001) > &PARM04
(PID.TID 0000.0001) > horizGridFile='grid_cs32',
(PID.TID 0000.0001) > usingCurvilinearGrid=.TRUE.,
(PID.TID 0000.0001) > delR =
(PID.TID 0000.0001) >     10.00, 10.00, 10.00, 10.00, 10.00, 10.00, 10.00, 10.01,
(PID.TID 0000.0001) >     10.03, 10.11, 10.32, 10.80, 11.76, 13.42, 16.04, 19.82, 24.85,
(PID.TID 0000.0001) >     31.10, 38.42, 46.50, 55.00, 63.50, 71.58, 78.90, 85.15, 90.18,
(PID.TID 0000.0001) >     93.96, 96.58, 98.25, 99.25,100.01,101.33,104.56,111.33,122.83,
(PID.TID 0000.0001) >     139.09,158.94,180.83,203.55,226.50,249.50,272.50,295.50,318.50,
(PID.TID 0000.0001) >     341.50,364.50,387.50,410.50,433.50,456.50,
(PID.TID 0000.0001) > /
(PID.TID 0000.0001) >
(PID.TID 0000.0001) ># Input datasets
(PID.TID 0000.0001) > &PARM05
(PID.TID 0000.0001) > adTapeDir='tapes',
(PID.TID 0000.0001) ># bathyFile      ='bathy_shallow.bin',
(PID.TID 0000.0001) > bathyFile      ='bathy_global.bin',
(PID.TID 0000.0001) ># bathyFile      ='bathy_north.bin',
(PID.TID 0000.0001) ># bathyFile      ='bathy_south.bin',
(PID.TID 0000.0001) > hydrogThetaFile='some_T_atlas.bin',
(PID.TID 0000.0001) > hydrogSaltFile ='some_S_atlas.bin',
(PID.TID 0000.0001) >#
(PID.TID 0000.0001) > /
(PID.TID 0000.0001) 
(PID.TID 0000.0001)  INI_PARMS ; starts to read PARM01
(PID.TID 0000.0001)  INI_PARMS ; read PARM01 : OK
(PID.TID 0000.0001)  INI_PARMS ; starts to read PARM02
(PID.TID 0000.0001)  INI_PARMS ; read PARM02 : OK
(PID.TID 0000.0001)  INI_PARMS ; starts to read PARM03
(PID.TID 0000.0001)  INI_PARMS ; read PARM03 : OK
(PID.TID 0000.0001)  INI_PARMS ; starts to read PARM04
(PID.TID 0000.0001)  INI_PARMS ; read PARM04 : OK
(PID.TID 0000.0001)  INI_PARMS ; starts to read PARM05
(PID.TID 0000.0001)  INI_PARMS ; read PARM05 : OK
(PID.TID 0000.0001)  INI_PARMS: finished reading file "data"
(PID.TID 0000.0001)  PACKAGES_BOOT: opening data.pkg
(PID.TID 0000.0001)  OPEN_COPY_DATA_FILE: opening file data.pkg
(PID.TID 0000.0001) // =======================================================
(PID.TID 0000.0001) // Parameter file "data.pkg"
(PID.TID 0000.0001) // =======================================================
(PID.TID 0000.0001) ># Packages
(PID.TID 0000.0001) > &PACKAGES
(PID.TID 0000.0001) > useEXF   = .TRUE.,
(PID.TID 0000.0001) >#useRBCS  = .TRUE.,
(PID.TID 0000.0001) > useGMRedi= .TRUE.,
(PID.TID 0000.0001) ># useKPP   = .TRUE.,
(PID.TID 0000.0001) > useSBO   = .FALSE.,
(PID.TID 0000.0001) >#useMNC   = .TRUE.,
(PID.TID 0000.0001) > useSeaice= .TRUE.,
(PID.TID 0000.0001) > useGGL90=.TRUE.,
(PID.TID 0000.0001) > useSALT_PlUME=.TRUE.,
(PID.TID 0000.0001) ># useDOWN_SLOPE=.TRUE.,
(PID.TID 0000.0001) >#useDiagnostics=.TRUE.,
(PID.TID 0000.0001) > useProfiles=.TRUE.,
(PID.TID 0000.0001) > useSMOOTH=.TRUE.,
(PID.TID 0000.0001) > useGrdchk=.TRUE.,
(PID.TID 0000.0001) >#useLayers=.TRUE.,
(PID.TID 0000.0001) >#
(PID.TID 0000.0001) >#usePtracers=.TRUE.,
(PID.TID 0000.0001) >#useBBL=.TRUE.,
(PID.TID 0000.0001) > /
(PID.TID 0000.0001) 
(PID.TID 0000.0001)  PACKAGES_BOOT: finished reading data.pkg
(PID.TID 0000.0001) CAL_READPARMS: opening data.cal
(PID.TID 0000.0001)  OPEN_COPY_DATA_FILE: opening file data.cal
(PID.TID 0000.0001) // =======================================================
(PID.TID 0000.0001) // Parameter file "data.cal"
(PID.TID 0000.0001) // =======================================================
(PID.TID 0000.0001) >#
(PID.TID 0000.0001) ># *******************
(PID.TID 0000.0001) ># Calendar Parameters
(PID.TID 0000.0001) ># *******************
(PID.TID 0000.0001) > &CAL_NML
(PID.TID 0000.0001) > TheCalendar='gregorian',
(PID.TID 0000.0001) > calendarDumps=.TRUE.,
(PID.TID 0000.0001) ># TheCalendar='model',
(PID.TID 0000.0001) > startDate_1=19480101,
(PID.TID 0000.0001) > startDate_2=120000,
(PID.TID 0000.0001) > /
(PID.TID 0000.0001) 
(PID.TID 0000.0001) CAL_READPARMS: finished reading data.cal
(PID.TID 0000.0001) EXF_READPARMS: opening data.exf
(PID.TID 0000.0001)  OPEN_COPY_DATA_FILE: opening file data.exf
(PID.TID 0000.0001) // =======================================================
(PID.TID 0000.0001) // Parameter file "data.exf"
(PID.TID 0000.0001) // =======================================================
(PID.TID 0000.0001) ># *********************
(PID.TID 0000.0001) ># External Forcing Data
(PID.TID 0000.0001) ># *********************
(PID.TID 0000.0001) >#
(PID.TID 0000.0001) > &EXF_NML_01
(PID.TID 0000.0001) >#see MITgcm/verification/global_ocean.cs32x15/input.icedyn/data.exf
(PID.TID 0000.0001) > exf_albedo        = 0.066,
(PID.TID 0000.0001) > ht                = 10.,
(PID.TID 0000.0001) > ocean_emissivity  = 1.,
(PID.TID 0000.0001) > atmrho            = 1.22,
(PID.TID 0000.0001) > humid_fac         = .608,
(PID.TID 0000.0001) >#
(PID.TID 0000.0001) > exf_iprec         = 32,
(PID.TID 0000.0001) > exf_yftype        = 'RL',
(PID.TID 0000.0001) > useExfCheckRange  = .FALSE.,
(PID.TID 0000.0001) > repeatPeriod      = 31536000.,
(PID.TID 0000.0001) > useAtmWind        = .TRUE.,
(PID.TID 0000.0001) > /
(PID.TID 0000.0001) >#
(PID.TID 0000.0001) > &EXF_NML_02
(PID.TID 0000.0001) > uwindfile         = 'CORE2_u10m_6hrly_r2_cnyf',
(PID.TID 0000.0001) > vwindfile         = 'CORE2_v10m_6hrly_r2_cnyf',
(PID.TID 0000.0001) > atempfile         = 'CORE2_tmp10m_6hrly_r2_cnyf',
(PID.TID 0000.0001) > aqhfile           = 'CORE2_spfh10m_6hrly_r2_cnyf',
(PID.TID 0000.0001) > precipfile        = 'CORE2_rain_monthly_r2_cnyf',
(PID.TID 0000.0001) > swdownfile        = 'CORE2_dsw_daily_r2_cnyf',
(PID.TID 0000.0001) > lwdownfile        = 'CORE2_dlw_daily_r2_cnyf',
(PID.TID 0000.0001) >#
(PID.TID 0000.0001) > ustressstartdate1   = 19470101,
(PID.TID 0000.0001) > ustressstartdate2   = 030000,
(PID.TID 0000.0001) > ustressperiod       = 21600.0,
(PID.TID 0000.0001) >#
(PID.TID 0000.0001) > vstressstartdate1   = 19470101,
(PID.TID 0000.0001) > vstressstartdate2   = 030000,
(PID.TID 0000.0001) > vstressperiod       = 21600.0,
(PID.TID 0000.0001) >#
(PID.TID 0000.0001) > atempstartdate1   = 19470101,
(PID.TID 0000.0001) > atempstartdate2   = 030000,
(PID.TID 0000.0001) > atempperiod       = 21600.0,
(PID.TID 0000.0001) >#
(PID.TID 0000.0001) > aqhstartdate1     = 19470101,
(PID.TID 0000.0001) > aqhstartdate2     = 030000,
(PID.TID 0000.0001) > aqhperiod         = 21600.0,
(PID.TID 0000.0001) >#
(PID.TID 0000.0001) > precipstartdate1  = 19470115,
(PID.TID 0000.0001) > precipstartdate2  = 120000,
(PID.TID 0000.0001) > precipperiod      = 2628000.0,
(PID.TID 0000.0001) >#or precipperiod = -12.,
(PID.TID 0000.0001) >#
(PID.TID 0000.0001) > runoffstartdate1  = 19470115,
(PID.TID 0000.0001) > runoffstartdate2  = 120000,
(PID.TID 0000.0001) > runoffperiod      = 2628000.0,
(PID.TID 0000.0001) >#
(PID.TID 0000.0001) > uwindstartdate1   = 19470101,
(PID.TID 0000.0001) > uwindstartdate2   = 030000,
(PID.TID 0000.0001) > uwindperiod       = 21600.0,
(PID.TID 0000.0001) >#
(PID.TID 0000.0001) > vwindstartdate1   = 19470101,
(PID.TID 0000.0001) > vwindstartdate2   = 030000,
(PID.TID 0000.0001) > vwindperiod       = 21600.0,
(PID.TID 0000.0001) >#
(PID.TID 0000.0001) > wspeedstartdate1   = 19470101,
(PID.TID 0000.0001) > wspeedstartdate2   = 120000,
(PID.TID 0000.0001) > wspeedperiod       = 21600.0,
(PID.TID 0000.0001) >#
(PID.TID 0000.0001) > swdownstartdate1  = 19470101,
(PID.TID 0000.0001) > swdownstartdate2  = 120000,
(PID.TID 0000.0001) > swdownperiod      = 86400.0,
(PID.TID 0000.0001) >#
(PID.TID 0000.0001) > lwdownstartdate1  = 19470101,
(PID.TID 0000.0001) > lwdownstartdate2  = 120000,
(PID.TID 0000.0001) > lwdownperiod      = 86400.0,
(PID.TID 0000.0001) >#
(PID.TID 0000.0001) > apressurestartdate1   = 19470101,
(PID.TID 0000.0001) > apressurestartdate2   = 120000,
(PID.TID 0000.0001) > apressureperiod       = 21600.0,
(PID.TID 0000.0001) >#
(PID.TID 0000.0001) > climsssfile       = 'some_SSS_atlas.bin',
(PID.TID 0000.0001) > climsssperiod     = -12.,
(PID.TID 0000.0001) ># climsssTauRelax   = 15768000.,
(PID.TID 0000.0001) > climsssTauRelax   = 25920000.,
(PID.TID 0000.0001) > /
(PID.TID 0000.0001) >#
(PID.TID 0000.0001) > &EXF_NML_03
(PID.TID 0000.0001) >#NOT FOR EIG exf_offset_atemp  = 273.3971,
(PID.TID 0000.0001) > exf_offset_atemp  = 273.15,
(PID.TID 0000.0001) >#not with core2_cnyf exf_inscal_runoff = 1.e-06,
(PID.TID 0000.0001) ># to compensate for sea level rise for nlfs/realFWF
(PID.TID 0000.0001) ># precip_exfremo_intercept = 1.073E-9,
(PID.TID 0000.0001) ># precip_exfremo_slope = -3.340E-18,
(PID.TID 0000.0001) > /
(PID.TID 0000.0001) >#
(PID.TID 0000.0001) > &EXF_NML_04
(PID.TID 0000.0001) > runoff_interpMethod = 0,
(PID.TID 0000.0001) > climsss_interpMethod = 0,
(PID.TID 0000.0001) >#
(PID.TID 0000.0001) > atemp_lon0        = 0.00D0,
(PID.TID 0000.0001) > atemp_lon_inc     = 1.875D0,
(PID.TID 0000.0001) > atemp_lat0        = -88.5420D0,
(PID.TID 0000.0001) > atemp_lat_inc     = 1.8888, 1.9000, 1.9024, 1.9034, 1.9039, 1.9042,
(PID.TID 0000.0001) >     1.9042, 1.9044, 1.9045, 1.9045, 1.9046, 1.9046, 1.9046, 1.9046,
(PID.TID 0000.0001) >     1.9047, 1.9046, 1.9047, 1.9047, 1.9047, 1.9047, 1.9047, 1.9047,
(PID.TID 0000.0001) >     1.9047, 1.9047, 1.9047, 1.9047, 1.9048, 1.9047, 1.9047, 1.9047,
(PID.TID 0000.0001) >     1.9047, 1.9048, 1.9047, 1.9047, 1.9048, 1.9047, 1.9047, 1.9048,
(PID.TID 0000.0001) >     1.9047, 1.9047, 1.9048, 1.9047, 1.9047, 1.9048, 1.9047, 1.9047,
(PID.TID 0000.0001) >     1.9048, 1.9047, 1.9047, 1.9048, 1.9047, 1.9047, 1.9048, 1.9047,
(PID.TID 0000.0001) >     1.9047, 1.9048, 1.9047, 1.9047, 1.9048, 1.9047, 1.9047, 1.9048,
(PID.TID 0000.0001) >     1.9047, 1.9047, 1.9047, 1.9047, 1.9048, 1.9047, 1.9047, 1.9047,
(PID.TID 0000.0001) >     1.9047, 1.9047, 1.9047, 1.9047, 1.9047, 1.9047, 1.9047, 1.9046,
(PID.TID 0000.0001) >     1.9047, 1.9046, 1.9046, 1.9046, 1.9046, 1.9045, 1.9045, 1.9044,
(PID.TID 0000.0001) >     1.9042, 1.9042, 1.9039, 1.9034, 1.9024, 1.9000, 1.8888, 1.8888,
(PID.TID 0000.0001) > atemp_nlon        = 192,
(PID.TID 0000.0001) > atemp_nlat        = 94,
(PID.TID 0000.0001) >#
(PID.TID 0000.0001) > aqh_lon0          = 0.00D0,
(PID.TID 0000.0001) > aqh_lon_inc       = 1.875D0,
(PID.TID 0000.0001) > aqh_lat0          = -88.5420D0,
(PID.TID 0000.0001) > aqh_lat_inc       = 1.8888, 1.9000, 1.9024, 1.9034, 1.9039, 1.9042,
(PID.TID 0000.0001) >     1.9042, 1.9044, 1.9045, 1.9045, 1.9046, 1.9046, 1.9046, 1.9046,
(PID.TID 0000.0001) >     1.9047, 1.9046, 1.9047, 1.9047, 1.9047, 1.9047, 1.9047, 1.9047,
(PID.TID 0000.0001) >     1.9047, 1.9047, 1.9047, 1.9047, 1.9048, 1.9047, 1.9047, 1.9047,
(PID.TID 0000.0001) >     1.9047, 1.9048, 1.9047, 1.9047, 1.9048, 1.9047, 1.9047, 1.9048,
(PID.TID 0000.0001) >     1.9047, 1.9047, 1.9048, 1.9047, 1.9047, 1.9048, 1.9047, 1.9047,
(PID.TID 0000.0001) >     1.9048, 1.9047, 1.9047, 1.9048, 1.9047, 1.9047, 1.9048, 1.9047,
(PID.TID 0000.0001) >     1.9047, 1.9048, 1.9047, 1.9047, 1.9048, 1.9047, 1.9047, 1.9048,
(PID.TID 0000.0001) >     1.9047, 1.9047, 1.9047, 1.9047, 1.9048, 1.9047, 1.9047, 1.9047,
(PID.TID 0000.0001) >     1.9047, 1.9047, 1.9047, 1.9047, 1.9047, 1.9047, 1.9047, 1.9046,
(PID.TID 0000.0001) >     1.9047, 1.9046, 1.9046, 1.9046, 1.9046, 1.9045, 1.9045, 1.9044,
(PID.TID 0000.0001) >     1.9042, 1.9042, 1.9039, 1.9034, 1.9024, 1.9000, 1.8888, 1.8888,
(PID.TID 0000.0001) > aqh_nlon          = 192,
(PID.TID 0000.0001) > aqh_nlat          = 94,
(PID.TID 0000.0001) >#
(PID.TID 0000.0001) > precip_lon0       = 0.00D0,
(PID.TID 0000.0001) > precip_lon_inc    = 1.875D0,
(PID.TID 0000.0001) > precip_lat0       = -88.5420D0,
(PID.TID 0000.0001) > precip_lat_inc    = 1.8888, 1.9000, 1.9024, 1.9034, 1.9039, 1.9042,
(PID.TID 0000.0001) >     1.9042, 1.9044, 1.9045, 1.9045, 1.9046, 1.9046, 1.9046, 1.9046,
(PID.TID 0000.0001) >     1.9047, 1.9046, 1.9047, 1.9047, 1.9047, 1.9047, 1.9047, 1.9047,
(PID.TID 0000.0001) >     1.9047, 1.9047, 1.9047, 1.9047, 1.9048, 1.9047, 1.9047, 1.9047,
(PID.TID 0000.0001) >     1.9047, 1.9048, 1.9047, 1.9047, 1.9048, 1.9047, 1.9047, 1.9048,
(PID.TID 0000.0001) >     1.9047, 1.9047, 1.9048, 1.9047, 1.9047, 1.9048, 1.9047, 1.9047,
(PID.TID 0000.0001) >     1.9048, 1.9047, 1.9047, 1.9048, 1.9047, 1.9047, 1.9048, 1.9047,
(PID.TID 0000.0001) >     1.9047, 1.9048, 1.9047, 1.9047, 1.9048, 1.9047, 1.9047, 1.9048,
(PID.TID 0000.0001) >     1.9047, 1.9047, 1.9047, 1.9047, 1.9048, 1.9047, 1.9047, 1.9047,
(PID.TID 0000.0001) >     1.9047, 1.9047, 1.9047, 1.9047, 1.9047, 1.9047, 1.9047, 1.9046,
(PID.TID 0000.0001) >     1.9047, 1.9046, 1.9046, 1.9046, 1.9046, 1.9045, 1.9045, 1.9044,
(PID.TID 0000.0001) >     1.9042, 1.9042, 1.9039, 1.9034, 1.9024, 1.9000, 1.8888, 1.8888,
(PID.TID 0000.0001) > precip_nlon       = 192,
(PID.TID 0000.0001) > precip_nlat       = 94,
(PID.TID 0000.0001) >#
(PID.TID 0000.0001) > uwind_lon0        = 0.00D0,
(PID.TID 0000.0001) > uwind_lon_inc     = 1.875D0,
(PID.TID 0000.0001) > uwind_lat0        = -88.5420D0,
(PID.TID 0000.0001) > uwind_lat_inc     = 1.8888, 1.9000, 1.9024, 1.9034, 1.9039, 1.9042,
(PID.TID 0000.0001) >     1.9042, 1.9044, 1.9045, 1.9045, 1.9046, 1.9046, 1.9046, 1.9046,
(PID.TID 0000.0001) >     1.9047, 1.9046, 1.9047, 1.9047, 1.9047, 1.9047, 1.9047, 1.9047,
(PID.TID 0000.0001) >     1.9047, 1.9047, 1.9047, 1.9047, 1.9048, 1.9047, 1.9047, 1.9047,
(PID.TID 0000.0001) >     1.9047, 1.9048, 1.9047, 1.9047, 1.9048, 1.9047, 1.9047, 1.9048,
(PID.TID 0000.0001) >     1.9047, 1.9047, 1.9048, 1.9047, 1.9047, 1.9048, 1.9047, 1.9047,
(PID.TID 0000.0001) >     1.9048, 1.9047, 1.9047, 1.9048, 1.9047, 1.9047, 1.9048, 1.9047,
(PID.TID 0000.0001) >     1.9047, 1.9048, 1.9047, 1.9047, 1.9048, 1.9047, 1.9047, 1.9048,
(PID.TID 0000.0001) >     1.9047, 1.9047, 1.9047, 1.9047, 1.9048, 1.9047, 1.9047, 1.9047,
(PID.TID 0000.0001) >     1.9047, 1.9047, 1.9047, 1.9047, 1.9047, 1.9047, 1.9047, 1.9046,
(PID.TID 0000.0001) >     1.9047, 1.9046, 1.9046, 1.9046, 1.9046, 1.9045, 1.9045, 1.9044,
(PID.TID 0000.0001) >     1.9042, 1.9042, 1.9039, 1.9034, 1.9024, 1.9000, 1.8888, 1.8888,
(PID.TID 0000.0001) > uwind_nlon        = 192,
(PID.TID 0000.0001) > uwind_nlat        = 94,
(PID.TID 0000.0001) >#
(PID.TID 0000.0001) > vwind_lon0        = 0.00D0,
(PID.TID 0000.0001) > vwind_lon_inc     = 1.875D0,
(PID.TID 0000.0001) > vwind_lat0        = -88.5420D0,
(PID.TID 0000.0001) > vwind_lat_inc     = 1.8888, 1.9000, 1.9024, 1.9034, 1.9039, 1.9042,
(PID.TID 0000.0001) >     1.9042, 1.9044, 1.9045, 1.9045, 1.9046, 1.9046, 1.9046, 1.9046,
(PID.TID 0000.0001) >     1.9047, 1.9046, 1.9047, 1.9047, 1.9047, 1.9047, 1.9047, 1.9047,
(PID.TID 0000.0001) >     1.9047, 1.9047, 1.9047, 1.9047, 1.9048, 1.9047, 1.9047, 1.9047,
(PID.TID 0000.0001) >     1.9047, 1.9048, 1.9047, 1.9047, 1.9048, 1.9047, 1.9047, 1.9048,
(PID.TID 0000.0001) >     1.9047, 1.9047, 1.9048, 1.9047, 1.9047, 1.9048, 1.9047, 1.9047,
(PID.TID 0000.0001) >     1.9048, 1.9047, 1.9047, 1.9048, 1.9047, 1.9047, 1.9048, 1.9047,
(PID.TID 0000.0001) >     1.9047, 1.9048, 1.9047, 1.9047, 1.9048, 1.9047, 1.9047, 1.9048,
(PID.TID 0000.0001) >     1.9047, 1.9047, 1.9047, 1.9047, 1.9048, 1.9047, 1.9047, 1.9047,
(PID.TID 0000.0001) >     1.9047, 1.9047, 1.9047, 1.9047, 1.9047, 1.9047, 1.9047, 1.9046,
(PID.TID 0000.0001) >     1.9047, 1.9046, 1.9046, 1.9046, 1.9046, 1.9045, 1.9045, 1.9044,
(PID.TID 0000.0001) >     1.9042, 1.9042, 1.9039, 1.9034, 1.9024, 1.9000, 1.8888, 1.8888,
(PID.TID 0000.0001) > vwind_nlon        = 192,
(PID.TID 0000.0001) > vwind_nlat        = 94,
(PID.TID 0000.0001) >#
(PID.TID 0000.0001) > swdown_lon0       = 0.00D0,
(PID.TID 0000.0001) > swdown_lon_inc    = 1.875D0,
(PID.TID 0000.0001) > swdown_lat0       = -88.5420D0,
(PID.TID 0000.0001) > swdown_lat_inc    = 1.8888, 1.9000, 1.9024, 1.9034, 1.9039, 1.9042,
(PID.TID 0000.0001) >     1.9042, 1.9044, 1.9045, 1.9045, 1.9046, 1.9046, 1.9046, 1.9046,
(PID.TID 0000.0001) >     1.9047, 1.9046, 1.9047, 1.9047, 1.9047, 1.9047, 1.9047, 1.9047,
(PID.TID 0000.0001) >     1.9047, 1.9047, 1.9047, 1.9047, 1.9048, 1.9047, 1.9047, 1.9047,
(PID.TID 0000.0001) >     1.9047, 1.9048, 1.9047, 1.9047, 1.9048, 1.9047, 1.9047, 1.9048,
(PID.TID 0000.0001) >     1.9047, 1.9047, 1.9048, 1.9047, 1.9047, 1.9048, 1.9047, 1.9047,
(PID.TID 0000.0001) >     1.9048, 1.9047, 1.9047, 1.9048, 1.9047, 1.9047, 1.9048, 1.9047,
(PID.TID 0000.0001) >     1.9047, 1.9048, 1.9047, 1.9047, 1.9048, 1.9047, 1.9047, 1.9048,
(PID.TID 0000.0001) >     1.9047, 1.9047, 1.9047, 1.9047, 1.9048, 1.9047, 1.9047, 1.9047,
(PID.TID 0000.0001) >     1.9047, 1.9047, 1.9047, 1.9047, 1.9047, 1.9047, 1.9047, 1.9046,
(PID.TID 0000.0001) >     1.9047, 1.9046, 1.9046, 1.9046, 1.9046, 1.9045, 1.9045, 1.9044,
(PID.TID 0000.0001) >     1.9042, 1.9042, 1.9039, 1.9034, 1.9024, 1.9000, 1.8888, 1.8888,
(PID.TID 0000.0001) > swdown_nlon       = 192,
(PID.TID 0000.0001) > swdown_nlat       = 94,
(PID.TID 0000.0001) >#
(PID.TID 0000.0001) > lwdown_lon0       = 0.00D0,
(PID.TID 0000.0001) > lwdown_lon_inc    = 1.875D0,
(PID.TID 0000.0001) > lwdown_lat0       = -88.5420D0,
(PID.TID 0000.0001) > lwdown_lat_inc    = 1.8888, 1.9000, 1.9024, 1.9034, 1.9039, 1.9042,
(PID.TID 0000.0001) >     1.9042, 1.9044, 1.9045, 1.9045, 1.9046, 1.9046, 1.9046, 1.9046,
(PID.TID 0000.0001) >     1.9047, 1.9046, 1.9047, 1.9047, 1.9047, 1.9047, 1.9047, 1.9047,
(PID.TID 0000.0001) >     1.9047, 1.9047, 1.9047, 1.9047, 1.9048, 1.9047, 1.9047, 1.9047,
(PID.TID 0000.0001) >     1.9047, 1.9048, 1.9047, 1.9047, 1.9048, 1.9047, 1.9047, 1.9048,
(PID.TID 0000.0001) >     1.9047, 1.9047, 1.9048, 1.9047, 1.9047, 1.9048, 1.9047, 1.9047,
(PID.TID 0000.0001) >     1.9048, 1.9047, 1.9047, 1.9048, 1.9047, 1.9047, 1.9048, 1.9047,
(PID.TID 0000.0001) >     1.9047, 1.9048, 1.9047, 1.9047, 1.9048, 1.9047, 1.9047, 1.9048,
(PID.TID 0000.0001) >     1.9047, 1.9047, 1.9047, 1.9047, 1.9048, 1.9047, 1.9047, 1.9047,
(PID.TID 0000.0001) >     1.9047, 1.9047, 1.9047, 1.9047, 1.9047, 1.9047, 1.9047, 1.9046,
(PID.TID 0000.0001) >     1.9047, 1.9046, 1.9046, 1.9046, 1.9046, 1.9045, 1.9045, 1.9044,
(PID.TID 0000.0001) >     1.9042, 1.9042, 1.9039, 1.9034, 1.9024, 1.9000, 1.8888, 1.8888,
(PID.TID 0000.0001) > lwdown_nlon       = 192,
(PID.TID 0000.0001) > lwdown_nlat       = 94,
(PID.TID 0000.0001) >#
(PID.TID 0000.0001) > apressure_lon0       = 0.00D0,
(PID.TID 0000.0001) > apressure_lon_inc    = 1.875D0,
(PID.TID 0000.0001) > apressure_lat0       = -88.5420D0,
(PID.TID 0000.0001) > apressure_lat_inc    = 1.8888, 1.9000, 1.9024, 1.9034, 1.9039, 1.9042,
(PID.TID 0000.0001) >     1.9042, 1.9044, 1.9045, 1.9045, 1.9046, 1.9046, 1.9046, 1.9046,
(PID.TID 0000.0001) >     1.9047, 1.9046, 1.9047, 1.9047, 1.9047, 1.9047, 1.9047, 1.9047,
(PID.TID 0000.0001) >     1.9047, 1.9047, 1.9047, 1.9047, 1.9048, 1.9047, 1.9047, 1.9047,
(PID.TID 0000.0001) >     1.9047, 1.9048, 1.9047, 1.9047, 1.9048, 1.9047, 1.9047, 1.9048,
(PID.TID 0000.0001) >     1.9047, 1.9047, 1.9048, 1.9047, 1.9047, 1.9048, 1.9047, 1.9047,
(PID.TID 0000.0001) >     1.9048, 1.9047, 1.9047, 1.9048, 1.9047, 1.9047, 1.9048, 1.9047,
(PID.TID 0000.0001) >     1.9047, 1.9048, 1.9047, 1.9047, 1.9048, 1.9047, 1.9047, 1.9048,
(PID.TID 0000.0001) >     1.9047, 1.9047, 1.9047, 1.9047, 1.9048, 1.9047, 1.9047, 1.9047,
(PID.TID 0000.0001) >     1.9047, 1.9047, 1.9047, 1.9047, 1.9047, 1.9047, 1.9047, 1.9046,
(PID.TID 0000.0001) >     1.9047, 1.9046, 1.9046, 1.9046, 1.9046, 1.9045, 1.9045, 1.9044,
(PID.TID 0000.0001) >     1.9042, 1.9042, 1.9039, 1.9034, 1.9024, 1.9000, 1.8888, 1.8888,
(PID.TID 0000.0001) > apressure_nlon       = 192,
(PID.TID 0000.0001) > apressure_nlat       = 94,
(PID.TID 0000.0001) > /
(PID.TID 0000.0001) 
(PID.TID 0000.0001) EXF_READPARMS: reading EXF_NML_01
(PID.TID 0000.0001) EXF_READPARMS: reading EXF_NML_02
(PID.TID 0000.0001) EXF_READPARMS: reading EXF_NML_03
(PID.TID 0000.0001) EXF_READPARMS: reading EXF_NML_04
(PID.TID 0000.0001) EXF_READPARMS: finished reading data.exf
(PID.TID 0000.0001)  GGL90_READPARMS: opening data.ggl90
(PID.TID 0000.0001)  OPEN_COPY_DATA_FILE: opening file data.ggl90
(PID.TID 0000.0001) // =======================================================
(PID.TID 0000.0001) // Parameter file "data.ggl90"
(PID.TID 0000.0001) // =======================================================
(PID.TID 0000.0001) ># =====================================================================
(PID.TID 0000.0001) ># | Parameters for Gaspar et al. (1990)'s TKE vertical mixing scheme  |
(PID.TID 0000.0001) ># =====================================================================
(PID.TID 0000.0001) > &GGL90_PARM01
(PID.TID 0000.0001) ># GGL90taveFreq = 345600000.,
(PID.TID 0000.0001) ># GGL90dumpFreq = 86400.,
(PID.TID 0000.0001) ># GGL90writeState=.FALSE.,
(PID.TID 0000.0001) ># GGL90diffTKEh=3.e3,
(PID.TID 0000.0001) > GGL90alpha=30.,
(PID.TID 0000.0001) ># GGL90TKEFile = 'TKE_init.bin',
(PID.TID 0000.0001) > GGL90TKEmin  = 1.e-7,
(PID.TID 0000.0001) > GGL90TKEbottom = 1.e-6,
(PID.TID 0000.0001) > mxlMaxFlag =2,
(PID.TID 0000.0001) > mxlSurfFlag=.TRUE.,
(PID.TID 0000.0001) > /
(PID.TID 0000.0001) 
(PID.TID 0000.0001)  GGL90_READPARMS: finished reading data.ggl90
(PID.TID 0000.0001) // =======================================================
(PID.TID 0000.0001) // GGL90 configuration
(PID.TID 0000.0001) // =======================================================
(PID.TID 0000.0001) GGL90dumpFreq =   /* GGL90 state write out interval ( s ). */
(PID.TID 0000.0001)                 0.000000000000000E+00
(PID.TID 0000.0001)     ;
(PID.TID 0000.0001) GGL90taveFreq =   /* GGL90 averaging interval ( s ). */
(PID.TID 0000.0001)                 0.000000000000000E+00
(PID.TID 0000.0001)     ;
(PID.TID 0000.0001) GGL90mixingMAPS =   /* GGL90 IO flag. */
(PID.TID 0000.0001)                   F
(PID.TID 0000.0001)     ;
(PID.TID 0000.0001) GGL90writeState =   /* GGL90 IO flag. */
(PID.TID 0000.0001)                   F
(PID.TID 0000.0001)     ;
(PID.TID 0000.0001) GGL90ck =   /* GGL90 viscosity parameter. */
(PID.TID 0000.0001)                 1.000000000000000E-01
(PID.TID 0000.0001)     ;
(PID.TID 0000.0001) GGL90ceps =   /* GGL90 dissipation parameter. */
(PID.TID 0000.0001)                 7.000000000000000E-01
(PID.TID 0000.0001)     ;
(PID.TID 0000.0001) GGL90alpha =   /* GGL90 TKE diffusivity parameter. */
(PID.TID 0000.0001)                 3.000000000000000E+01
(PID.TID 0000.0001)     ;
(PID.TID 0000.0001) GGL90m2 =   /* GGL90 wind stress to vertical stress ratio. */
(PID.TID 0000.0001)                 3.750000000000000E+00
(PID.TID 0000.0001)     ;
(PID.TID 0000.0001) GGL90TKEmin =   /* GGL90 minimum kinetic energy ( m^2/s^2 ). */
(PID.TID 0000.0001)                 1.000000000000000E-07
(PID.TID 0000.0001)     ;
(PID.TID 0000.0001) GGL90TKEsurfMin =   /* GGL90 minimum surface kinetic energy ( m^2/s^2 ). */
(PID.TID 0000.0001)                 1.000000000000000E-04
(PID.TID 0000.0001)     ;
(PID.TID 0000.0001) GGL90TKEbottom =   /* GGL90 bottom kinetic energy ( m^2/s^2 ). */
(PID.TID 0000.0001)                 1.000000000000000E-06
(PID.TID 0000.0001)     ;
(PID.TID 0000.0001) GGL90viscMax =   /* GGL90 upper limit for viscosity ( m^2/s ). */
(PID.TID 0000.0001)                 1.000000000000000E+02
(PID.TID 0000.0001)     ;
(PID.TID 0000.0001) GGL90diffMax =   /* GGL90 upper limit for diffusivity ( m^2/s ). */
(PID.TID 0000.0001)                 1.000000000000000E+02
(PID.TID 0000.0001)     ;
(PID.TID 0000.0001) GGL90diffTKEh =   /* GGL90 horizontal diffusivity for TKE ( m^2/s ). */
(PID.TID 0000.0001)                 0.000000000000000E+00
(PID.TID 0000.0001)     ;
(PID.TID 0000.0001) GGL90mixingLengthMin =   /* GGL90 minimum mixing length ( m ). */
(PID.TID 0000.0001)                 1.000000000000000E-08
(PID.TID 0000.0001)     ;
(PID.TID 0000.0001) mxlMaxFlag =   /* Flag for limiting mixing-length method */
(PID.TID 0000.0001)                       2
(PID.TID 0000.0001)     ;
(PID.TID 0000.0001) mxlSurfFlag =   /* GGL90 flag for near surface mixing. */
(PID.TID 0000.0001)                   T
(PID.TID 0000.0001)     ;
(PID.TID 0000.0001) GGL90: GGL90TKEFile =
(PID.TID 0000.0001) // =======================================================
(PID.TID 0000.0001) // End of GGL90 config. summary
(PID.TID 0000.0001) // =======================================================
(PID.TID 0000.0001) 
(PID.TID 0000.0001)  GM_READPARMS: opening data.gmredi
(PID.TID 0000.0001)  OPEN_COPY_DATA_FILE: opening file data.gmredi
(PID.TID 0000.0001) // =======================================================
(PID.TID 0000.0001) // Parameter file "data.gmredi"
(PID.TID 0000.0001) // =======================================================
(PID.TID 0000.0001) ># GM+Redi package parameters:
(PID.TID 0000.0001) >#     GM_Small_Number  :: epsilon used in computing the slope
(PID.TID 0000.0001) >#     GM_slopeSqCutoff :: slope^2 cut-off value
(PID.TID 0000.0001) >
(PID.TID 0000.0001) >#-from MOM :
(PID.TID 0000.0001) ># GM_background_K: 	G & Mc.W  diffusion coefficient
(PID.TID 0000.0001) ># GM_maxSlope    :	max slope of isopycnals
(PID.TID 0000.0001) ># GM_Scrit       :	transition for scaling diffusion coefficient
(PID.TID 0000.0001) ># GM_Sd          :	half width scaling for diffusion coefficient
(PID.TID 0000.0001) ># GM_taper_scheme:	slope clipping or one of the tapering schemes
(PID.TID 0000.0001) ># GM_Kmin_horiz  :	horizontal diffusion minimum value
(PID.TID 0000.0001) >
(PID.TID 0000.0001) >#-Option parameters (needs to "define" options in GMREDI_OPTIONS.h")
(PID.TID 0000.0001) ># GM_isopycK     :	isopycnal diffusion coefficient (default=GM_background_K)
(PID.TID 0000.0001) ># GM_AdvForm     :	turn on GM Advective form       (default=Skew flux form)
(PID.TID 0000.0001) >
(PID.TID 0000.0001) > &GM_PARM01
(PID.TID 0000.0001) >  GM_Small_Number  = 1.D-20,
(PID.TID 0000.0001) >  GM_slopeSqCutoff = 1.D+08,
(PID.TID 0000.0001) >  GM_AdvForm         = .TRUE.,
(PID.TID 0000.0001) >  GM_isopycK         = 1.D+3,
(PID.TID 0000.0001) >  GM_background_K    = 1.D+3,
(PID.TID 0000.0001) >  GM_maxSlope        = 4.D-3,
(PID.TID 0000.0001) >  GM_taper_scheme    = 'stableGmAdjTap',
(PID.TID 0000.0001) >  GM_Kmin_horiz      = 100.,
(PID.TID 0000.0001) >  GM_Scrit           = 4.D-3,
(PID.TID 0000.0001) >  GM_Sd              = 1.D-3,
(PID.TID 0000.0001) >#
(PID.TID 0000.0001) >###  GM_Visbeck_alpha   = 1.5D-2,
(PID.TID 0000.0001) >###  GM_Visbeck_alpha   = 0.D0,
(PID.TID 0000.0001) >###  GM_Visbeck_length  = 2.D+5,
(PID.TID 0000.0001) >###  GM_Visbeck_depth   = 1.D+3,
(PID.TID 0000.0001) >###  GM_Visbeck_maxval_K= 2.5D+3,
(PID.TID 0000.0001) > /
(PID.TID 0000.0001) >
(PID.TID 0000.0001) >
(PID.TID 0000.0001) 
(PID.TID 0000.0001)  GM_READPARMS: finished reading data.gmredi
(PID.TID 0000.0001) 
(PID.TID 0000.0001)  SEAICE_READPARMS: opening data.seaice
(PID.TID 0000.0001)  OPEN_COPY_DATA_FILE: opening file data.seaice
(PID.TID 0000.0001) // =======================================================
(PID.TID 0000.0001) // Parameter file "data.seaice"
(PID.TID 0000.0001) // =======================================================
(PID.TID 0000.0001) ># SEAICE parameters
(PID.TID 0000.0001) > &SEAICE_PARM01
(PID.TID 0000.0001) >#here I take the fields from pickup.seaice.previous.data that
(PID.TID 0000.0001) >#came out of experiment 2 ("relax") part 4 to initialize part 5
(PID.TID 0000.0001) >      AreaFile='siAREA.ini',
(PID.TID 0000.0001) >      HeffFile='siHEFF.ini',
(PID.TID 0000.0001) >      HsnowFile='siHSNOW.ini',
(PID.TID 0000.0001) >      uIceFile='siUICE.ini',
(PID.TID 0000.0001) >      vIceFile='siVICE.ini',
(PID.TID 0000.0001) >#
(PID.TID 0000.0001) >      SEAICEuseTILT=.FALSE.,
(PID.TID 0000.0001) >      SEAICEpresH0=2.,
(PID.TID 0000.0001) >      SEAICEpresPow0=1,
(PID.TID 0000.0001) >      SEAICEpresPow1=3,
(PID.TID 0000.0001) >      SEAICE_multDim=1,
(PID.TID 0000.0001) >      SEAICErestoreUnderIce=.TRUE.,
(PID.TID 0000.0001) >#     SEAICE_area_max=0.95,
(PID.TID 0000.0001) >#for backward compatibility (before 2011 june 19, those were the defaults)
(PID.TID 0000.0001) >#     SEAICE_area_floor=0.15,
(PID.TID 0000.0001) >#     SEAICE_area_reg=0.15,
(PID.TID 0000.0001) >      SEAICE_salt0=4.,
(PID.TID 0000.0001) ># for long time step:
(PID.TID 0000.0001) >#      SEAICE_deltaTevp   = 720.,
(PID.TID 0000.0001) ># for regular time step:
(PID.TID 0000.0001) >#      SEAICE_deltaTevp   = 60.,
(PID.TID 0000.0001) ># for lsr:
(PID.TID 0000.0001) >      LSR_ERROR          = 2.e-4,
(PID.TID 0000.0001) >      SEAICEuseDYNAMICS  = .TRUE.,
(PID.TID 0000.0001) ># BAD OPTION -- DO NOT USE -- SEAICE_maskRHS     = .TRUE.,
(PID.TID 0000.0001) >      MIN_ATEMP          = -40.,
(PID.TID 0000.0001) >      MIN_TICE           = -40.,
(PID.TID 0000.0001) >      SEAICEadvScheme    = 30,
(PID.TID 0000.0001) >      SEAICEuseFluxForm = .TRUE.,
(PID.TID 0000.0001) >      SEAICEadvSnow      = .TRUE.,
(PID.TID 0000.0001) >#      SEAICEadvSalt      = .TRUE.,
(PID.TID 0000.0001) >      SEAICEdiffKhHeff   = 400.,
(PID.TID 0000.0001) >      SEAICEdiffKhArea   = 400.,
(PID.TID 0000.0001) >      SEAICEdiffKhSnow   = 400.,
(PID.TID 0000.0001) >#      SEAICEdiffKhSalt   = 400.,
(PID.TID 0000.0001) >      SEAICEuseFlooding  = .TRUE.,
(PID.TID 0000.0001) >      SEAICE_mcPheePiston= 3.858024691358025E-05,
(PID.TID 0000.0001) >      SEAICE_frazilFrac  = 1.,
(PID.TID 0000.0001) >      SEAICE_mcPheeTaper = 0.,
(PID.TID 0000.0001) >      SEAICE_areaLossFormula=2,
(PID.TID 0000.0001) >      SEAICEheatConsFix  = .TRUE.,
(PID.TID 0000.0001) >      SEAICE_tempFrz0    = -1.96,
(PID.TID 0000.0001) >      SEAICE_dTempFrz_dS = 0.,
(PID.TID 0000.0001) >      SEAICEuseMetricTerms = .TRUE.,
(PID.TID 0000.0001) >      SEAICE_no_slip     = .FALSE.,
(PID.TID 0000.0001) >      SEAICE_clipVelocities = .TRUE.,
(PID.TID 0000.0001) >#take 33% out of (1-albedo)
(PID.TID 0000.0001) >#     SEAICE_dryIceAlb   = 0.84,
(PID.TID 0000.0001) >#     SEAICE_wetIceAlb   = 0.78,
(PID.TID 0000.0001) >#     SEAICE_drySnowAlb  = 0.90,
(PID.TID 0000.0001) >#     SEAICE_wetSnowAlb  = 0.8 ,
(PID.TID 0000.0001) >#add 66% (1-albedo)
(PID.TID 0000.0001) >#     SEAICE_dryIceAlb_south  = 0.58,
(PID.TID 0000.0001) >#     SEAICE_wetIceAlb_south  = 0.45,
(PID.TID 0000.0001) >#     SEAICE_drySnowAlb_south = 0.73,
(PID.TID 0000.0001) >#     SEAICE_wetSnowAlb_south = 0.50,
(PID.TID 0000.0001) > /
(PID.TID 0000.0001) >#
(PID.TID 0000.0001) > &SEAICE_PARM02
(PID.TID 0000.0001) > /
(PID.TID 0000.0001) >
(PID.TID 0000.0001) 
(PID.TID 0000.0001)  SEAICE_READPARMS: finished reading data.seaice
(PID.TID 0000.0001) SALT_PLUME_READPARMS: opening data.salt_plume
(PID.TID 0000.0001)  OPEN_COPY_DATA_FILE: opening file data.salt_plume
(PID.TID 0000.0001) // =======================================================
(PID.TID 0000.0001) // Parameter file "data.salt_plume"
(PID.TID 0000.0001) // =======================================================
(PID.TID 0000.0001) > &SALT_PLUME_PARM01
(PID.TID 0000.0001) ># SaltPlumeCriterion = 0.4D0,
(PID.TID 0000.0001) > SPsalFRAC= 0.5D0,
(PID.TID 0000.0001) >#SPsalFRAC= 0.25D0,
(PID.TID 0000.0001) >#SPsalFRAC= 0.0D0,
(PID.TID 0000.0001) > /
(PID.TID 0000.0001) 
(PID.TID 0000.0001) SALT_PLUME_READPARMS: finished reading data.salt_plume
(PID.TID 0000.0001) AUTODIFF_READPARMS: opening data.autodiff
(PID.TID 0000.0001)  OPEN_COPY_DATA_FILE: opening file data.autodiff
(PID.TID 0000.0001) // =======================================================
(PID.TID 0000.0001) // Parameter file "data.autodiff"
(PID.TID 0000.0001) // =======================================================
(PID.TID 0000.0001) ># =========================
(PID.TID 0000.0001) ># pkg AUTODIFF parameters :
(PID.TID 0000.0001) ># =========================
(PID.TID 0000.0001) >#  inAdExact :: get an exact adjoint (no approximation) (def=.True.)
(PID.TID 0000.0001) >#
(PID.TID 0000.0001) > &AUTODIFF_PARM01
(PID.TID 0000.0001) ># inAdExact = .FALSE.,
(PID.TID 0000.0001) ># useSEAICEinAdMode = .FALSE.,
(PID.TID 0000.0001) ># useKPPinAdMode = .FALSE.,
(PID.TID 0000.0001) ># useGMRediInAdMode = .FALSE.,
(PID.TID 0000.0001) > useGGL90inAdMode = .FALSE.,
(PID.TID 0000.0001) > useSALT_PLUMEinAdMode = .FALSE.,
(PID.TID 0000.0001) > /
(PID.TID 0000.0001) 
(PID.TID 0000.0001) AUTODIFF_READPARMS: finished reading data.autodiff
(PID.TID 0000.0001) // ===================================
(PID.TID 0000.0001) // AUTODIFF parameters :
(PID.TID 0000.0001) // ===================================
(PID.TID 0000.0001) inAdExact = /* get an exact adjoint (no approximation) */
(PID.TID 0000.0001)                   T
(PID.TID 0000.0001)     ;
(PID.TID 0000.0001) useKPPinAdMode = /* use KPP in adjoint mode */
(PID.TID 0000.0001)                   F
(PID.TID 0000.0001)     ;
(PID.TID 0000.0001) useGMRediInAdMode = /* use GMRedi in adjoint mode */
(PID.TID 0000.0001)                   T
(PID.TID 0000.0001)     ;
(PID.TID 0000.0001) useSEAICEinAdMode = /* use SEAICE in adjoint mode */
(PID.TID 0000.0001)                   T
(PID.TID 0000.0001)     ;
(PID.TID 0000.0001) useGGL90inAdMode = /* use GGL90 in adjoint mode */
(PID.TID 0000.0001)                   F
(PID.TID 0000.0001)     ;
(PID.TID 0000.0001) useSALT_PLUMEinAdMode = /* use SALT_PLUME in adjoint mode */
(PID.TID 0000.0001)                   F
(PID.TID 0000.0001)     ;
(PID.TID 0000.0001) SEAICEuseDYNAMICSswitchInAd = /* switch On/Off SEAICE Dyn in AD mode */
(PID.TID 0000.0001)                   F
(PID.TID 0000.0001)     ;
(PID.TID 0000.0001) SEAICEuseFREEDRIFTswitchInAd= /* switch On/Off Free-Drift in AD mode */
(PID.TID 0000.0001)                   F
(PID.TID 0000.0001)     ;
(PID.TID 0000.0001) dumpAdVarExch = /* control adexch before dumpinp */
(PID.TID 0000.0001)                       2
(PID.TID 0000.0001)     ;
(PID.TID 0000.0001) mon_AdVarExch = /* control adexch before monitor */
(PID.TID 0000.0001)                       2
(PID.TID 0000.0001)     ;
(PID.TID 0000.0001) 
(PID.TID 0000.0001) OPTIM_READPARMS: opening data.optim
(PID.TID 0000.0001)  OPEN_COPY_DATA_FILE: opening file data.optim
(PID.TID 0000.0001) // =======================================================
(PID.TID 0000.0001) // Parameter file "data.optim"
(PID.TID 0000.0001) // =======================================================
(PID.TID 0000.0001) >#
(PID.TID 0000.0001) ># ********************************
(PID.TID 0000.0001) ># Off-line optimization parameters
(PID.TID 0000.0001) ># ********************************
(PID.TID 0000.0001) > &OPTIM
(PID.TID 0000.0001) > optimcycle=0,
(PID.TID 0000.0001) > /
(PID.TID 0000.0001) 
(PID.TID 0000.0001) OPTIM_READPARMS: finished reading data.optim
(PID.TID 0000.0001) CTRL_READPARMS: opening data.ctrl
(PID.TID 0000.0001)  OPEN_COPY_DATA_FILE: opening file data.ctrl
(PID.TID 0000.0001) // =======================================================
(PID.TID 0000.0001) // Parameter file "data.ctrl"
(PID.TID 0000.0001) // =======================================================
(PID.TID 0000.0001) ># *********************
(PID.TID 0000.0001) ># ECCO controlvariables
(PID.TID 0000.0001) ># *********************
(PID.TID 0000.0001) > &ctrl_nml
(PID.TID 0000.0001) >#
(PID.TID 0000.0001) > doSinglePrecTapelev=.TRUE.,
(PID.TID 0000.0001) > ctrlSmoothCorrel2D=.TRUE.,
(PID.TID 0000.0001) > ctrlSmoothCorrel3D=.TRUE.,
(PID.TID 0000.0001) >#to start from given xx*00.data files
(PID.TID 0000.0001) ># doinitxx = .FALSE.,
(PID.TID 0000.0001) ># doMainUnpack = .FALSE.,
(PID.TID 0000.0001) >#to start from given ecco_ctrl... files
(PID.TID 0000.0001) ># doinitxx = .FALSE.,
(PID.TID 0000.0001) >#
(PID.TID 0000.0001) >#doPackDiag = .TRUE.,
(PID.TID 0000.0001) > forcingPrecond=20.,
(PID.TID 0000.0001) ># doZscalePack = .TRUE.,
(PID.TID 0000.0001) ># doZscaleUnpack = .TRUE.,
(PID.TID 0000.0001) ># delZexp = -1.,
(PID.TID 0000.0001) >#
(PID.TID 0000.0001) > xx_theta_file='xx_theta',
(PID.TID 0000.0001) > xx_salt_file='xx_salt',
(PID.TID 0000.0001) >#
(PID.TID 0000.0001) > xx_hflux_file='xx_hfl',
(PID.TID 0000.0001) > xx_hfluxstartdate1=19480101,
(PID.TID 0000.0001) > xx_hfluxstartdate2=60000,
(PID.TID 0000.0001) > xx_hfluxperiod=1209600.0,
(PID.TID 0000.0001) >#
(PID.TID 0000.0001) > xx_sflux_file='xx_sfl',
(PID.TID 0000.0001) > xx_sfluxstartdate1=19480101,
(PID.TID 0000.0001) > xx_sfluxstartdate2=60000,
(PID.TID 0000.0001) > xx_sfluxperiod=1209600.0,
(PID.TID 0000.0001) >#
(PID.TID 0000.0001) > xx_tauu_file='xx_tauu',
(PID.TID 0000.0001) > xx_tauustartdate1=19480101,
(PID.TID 0000.0001) > xx_tauustartdate2=60000,
(PID.TID 0000.0001) > xx_tauuperiod=1209600.0,
(PID.TID 0000.0001) >#
(PID.TID 0000.0001) > xx_tauv_file='xx_tauv',
(PID.TID 0000.0001) > xx_tauvstartdate1=19480101,
(PID.TID 0000.0001) > xx_tauvstartdate2=60000,
(PID.TID 0000.0001) > xx_tauvperiod=1209600.0,
(PID.TID 0000.0001) >#
(PID.TID 0000.0001) > xx_atemp_file='xx_atemp',
(PID.TID 0000.0001) > xx_atempstartdate1=19480101,
(PID.TID 0000.0001) > xx_atempstartdate2=60000,
(PID.TID 0000.0001) > xx_atempperiod=1209600.0,
(PID.TID 0000.0001) >#
(PID.TID 0000.0001) > xx_aqh_file='xx_aqh',
(PID.TID 0000.0001) > xx_aqhstartdate1=19480101,
(PID.TID 0000.0001) > xx_aqhstartdate2=60000,
(PID.TID 0000.0001) > xx_aqhperiod=1209600.0,
(PID.TID 0000.0001) >#
(PID.TID 0000.0001) > xx_uwind_file='xx_uwind',
(PID.TID 0000.0001) > xx_uwindstartdate1=19480101,
(PID.TID 0000.0001) > xx_uwindstartdate2=60000,
(PID.TID 0000.0001) > xx_uwindperiod=1209600.0,
(PID.TID 0000.0001) >#
(PID.TID 0000.0001) > xx_vwind_file='xx_vwind',
(PID.TID 0000.0001) > xx_vwindstartdate1=19480101,
(PID.TID 0000.0001) > xx_vwindstartdate2=60000,
(PID.TID 0000.0001) > xx_vwindperiod=1209600.0,
(PID.TID 0000.0001) >#
(PID.TID 0000.0001) > xx_precip_file='xx_precip',
(PID.TID 0000.0001) > xx_precipstartdate1=19480101,
(PID.TID 0000.0001) > xx_precipstartdate2=60000,
(PID.TID 0000.0001) > xx_precipperiod=1209600.0,
(PID.TID 0000.0001) >#
(PID.TID 0000.0001) > xx_swdown_file='xx_swdown',
(PID.TID 0000.0001) > xx_swdownstartdate1=19480101,
(PID.TID 0000.0001) > xx_swdownstartdate2=60000,
(PID.TID 0000.0001) > xx_swdownperiod=1209600.0,
(PID.TID 0000.0001) >#
(PID.TID 0000.0001) > xx_swflux_file='xx_swflux',
(PID.TID 0000.0001) > xx_swfluxstartdate1=19480101,
(PID.TID 0000.0001) > xx_swfluxstartdate2=60000,
(PID.TID 0000.0001) > xx_swfluxperiod=1209600.0,
(PID.TID 0000.0001) >#
(PID.TID 0000.0001) > xx_lwdown_file='xx_lwdown',
(PID.TID 0000.0001) > xx_lwdownstartdate1=19480101,
(PID.TID 0000.0001) > xx_lwdownstartdate2=60000,
(PID.TID 0000.0001) > xx_lwdownperiod=1209600.0,
(PID.TID 0000.0001) >#
(PID.TID 0000.0001) > xx_lwflux_file='xx_lwflux',
(PID.TID 0000.0001) > xx_lwfluxstartdate1=19480101,
(PID.TID 0000.0001) > xx_lwfluxstartdate2=60000,
(PID.TID 0000.0001) > xx_lwfluxperiod=1209600.0,
(PID.TID 0000.0001) >#
(PID.TID 0000.0001) > /
(PID.TID 0000.0001) >#
(PID.TID 0000.0001) ># *********************
(PID.TID 0000.0001) ># names for ctrl_pack/unpack
(PID.TID 0000.0001) ># *********************
(PID.TID 0000.0001) > &ctrl_packnames
(PID.TID 0000.0001) > ctrlname='ecco_ctrl',
(PID.TID 0000.0001) > costname='ecco_cost',
(PID.TID 0000.0001) > /
(PID.TID 0000.0001) >
(PID.TID 0000.0001) 
(PID.TID 0000.0001) CTRL_READPARMS: finished reading data.ctrl
(PID.TID 0000.0001) COST_READPARMS: opening data.cost
(PID.TID 0000.0001)  OPEN_COPY_DATA_FILE: opening file data.cost
(PID.TID 0000.0001) // =======================================================
(PID.TID 0000.0001) // Parameter file "data.cost"
(PID.TID 0000.0001) // =======================================================
(PID.TID 0000.0001) >#
(PID.TID 0000.0001) >#
(PID.TID 0000.0001) ># ******************
(PID.TID 0000.0001) ># cost function
(PID.TID 0000.0001) ># ******************
(PID.TID 0000.0001) > &COST_NML
(PID.TID 0000.0001) > /
(PID.TID 0000.0001) 
(PID.TID 0000.0001) COST_READPARMS: finished reading data.cost
(PID.TID 0000.0001) GRDCHK_READPARMS: opening data.grdchk
(PID.TID 0000.0001)  OPEN_COPY_DATA_FILE: opening file data.grdchk
(PID.TID 0000.0001) // =======================================================
(PID.TID 0000.0001) // Parameter file "data.grdchk"
(PID.TID 0000.0001) // =======================================================
(PID.TID 0000.0001) ># *******************
(PID.TID 0000.0001) ># ECCO gradient check
(PID.TID 0000.0001) ># *******************
(PID.TID 0000.0001) > &GRDCHK_NML
(PID.TID 0000.0001) > grdchk_eps       = 1.d-2,
(PID.TID 0000.0001) >#  iglopos         = 6,
(PID.TID 0000.0001) >#  jglopos         = 17,
(PID.TID 0000.0001) >#  kglopos         = 1,
(PID.TID 0000.0001) > nbeg             = 1,
(PID.TID 0000.0001) > nstep            = 1,
(PID.TID 0000.0001) > nend             = 4,
(PID.TID 0000.0001) > grdchkvarindex   = 1,
(PID.TID 0000.0001) > /
(PID.TID 0000.0001) 
(PID.TID 0000.0001) GRDCHK_READPARMS: finished reading data.grdchk
(PID.TID 0000.0001) 
(PID.TID 0000.0001) // =======================================================
(PID.TID 0000.0001) // Gradient check configuration  >>> START <<<
(PID.TID 0000.0001) // =======================================================
(PID.TID 0000.0001) 
(PID.TID 0000.0001)   eps:                              0.100E-01
(PID.TID 0000.0001)   First location:                           1
(PID.TID 0000.0001)   Last location:                            4
(PID.TID 0000.0001)   Increment:                                1
(PID.TID 0000.0001)   grdchkWhichProc:                          0
(PID.TID 0000.0001)   iLocTile =       1  ,    jLocTile =       1
(PID.TID 0000.0001) 
(PID.TID 0000.0001) // =======================================================
(PID.TID 0000.0001) // Gradient check configuration  >>> END <<<
(PID.TID 0000.0001) // =======================================================
(PID.TID 0000.0001) 
(PID.TID 0000.0001) PROFILES_READPARMS: opening data.smooth
(PID.TID 0000.0001)  OPEN_COPY_DATA_FILE: opening file data.smooth
(PID.TID 0000.0001) // =======================================================
(PID.TID 0000.0001) // Parameter file "data.smooth"
(PID.TID 0000.0001) // =======================================================
(PID.TID 0000.0001) > &SMOOTH_NML
(PID.TID 0000.0001) ># caution : if you edit this file you may
(PID.TID 0000.0001) ># need to replace smooth2*norm001 accordingly
(PID.TID 0000.0001) > smooth2Dnbt(1)=30
(PID.TID 0000.0001) > smooth2Dtype(1)=1
(PID.TID 0000.0001) > smooth2Dsize(1)=2
(PID.TID 0000.0001) > smooth2Dfilter(1)=0
(PID.TID 0000.0001) > smooth3Dnbt(1)=30
(PID.TID 0000.0001) > smooth3DtypeH(1)=1
(PID.TID 0000.0001) > smooth3DsizeH(1)=3
(PID.TID 0000.0001) > smooth3DtypeZ(1)=1
(PID.TID 0000.0001) > smooth3DsizeZ(1)=3
(PID.TID 0000.0001) > smooth3Dfilter(1)=0
(PID.TID 0000.0001) > /
(PID.TID 0000.0001) 
(PID.TID 0000.0001) PROFILES_READPARMS: finished reading data.smooth
(PID.TID 0000.0001) ECCO_READPARMS: opening data.ecco
(PID.TID 0000.0001)  OPEN_COPY_DATA_FILE: opening file data.ecco
(PID.TID 0000.0001) // =======================================================
(PID.TID 0000.0001) // Parameter file "data.ecco"
(PID.TID 0000.0001) // =======================================================
(PID.TID 0000.0001) >#
(PID.TID 0000.0001) >#
(PID.TID 0000.0001) ># ******************
(PID.TID 0000.0001) ># ECCO cost function
(PID.TID 0000.0001) ># ******************
(PID.TID 0000.0001) >#
(PID.TID 0000.0001) > &ECCO_COST_NML
(PID.TID 0000.0001) >#
(PID.TID 0000.0001) > temp0errfile     = 'some_T_sigma.bin',
(PID.TID 0000.0001) > salt0errfile     = 'some_S_sigma.bin',
(PID.TID 0000.0001) > data_errfile    = 'data.err',
(PID.TID 0000.0001) >#
(PID.TID 0000.0001) > whflux0              = 20.0,
(PID.TID 0000.0001) > wsflux0              = 3.0E-8,
(PID.TID 0000.0001) > wtau0                = 2.0E-2,
(PID.TID 0000.0001) >#
(PID.TID 0000.0001) > watemp0              = 1.0,
(PID.TID 0000.0001) > waqh0                = 0.5E-3,
(PID.TID 0000.0001) > wprecip0             = 1.5E-8,
(PID.TID 0000.0001) > wswflux0             = 15.0,
(PID.TID 0000.0001) > wswdown0             = 15.0,
(PID.TID 0000.0001) > wlwdown0             = 15.0,
(PID.TID 0000.0001) > wwind0               = 1.0,
(PID.TID 0000.0001) >#
(PID.TID 0000.0001) > wkapgm0              = 5.0E3,
(PID.TID 0000.0001) > wkapredi0            = 5.0E3,
(PID.TID 0000.0001) > wdiffkr0             = 1.0E-4,
(PID.TID 0000.0001) > wedtau0              = 1.0E0,
(PID.TID 0000.0001) > wbottomdrag0         = 1.0E-5,
(PID.TID 0000.0001) >#
(PID.TID 0000.0001) > mult_temp0  = 1.,
(PID.TID 0000.0001) > mult_salt0  = 1.,
(PID.TID 0000.0001) >#
(PID.TID 0000.0001) > mult_hflux  = 1.,
(PID.TID 0000.0001) > mult_sflux  = 1.,
(PID.TID 0000.0001) > mult_tauu   = 1.,
(PID.TID 0000.0001) > mult_tauv   = 1.,
(PID.TID 0000.0001) >#
(PID.TID 0000.0001) > mult_atemp  = 1.,
(PID.TID 0000.0001) > mult_aqh    = 1.,
(PID.TID 0000.0001) > mult_uwind  = 1.,
(PID.TID 0000.0001) > mult_vwind  = 1.,
(PID.TID 0000.0001) > mult_precip = 1.,
(PID.TID 0000.0001) > mult_swflux = 1.,
(PID.TID 0000.0001) > mult_swdown = 1.,
(PID.TID 0000.0001) > mult_lwflux = 1.,
(PID.TID 0000.0001) > mult_lwdown = 1.,
(PID.TID 0000.0001) >#
(PID.TID 0000.0001) > mult_kapgm   = 1.,
(PID.TID 0000.0001) > mult_kapredi = 1.,
(PID.TID 0000.0001) > mult_diffkr  = 1.,
(PID.TID 0000.0001) > mult_edtau   = 1.,
(PID.TID 0000.0001) > mult_bottomdrag   = 1.,
(PID.TID 0000.0001) >#
(PID.TID 0000.0001) > tdatfile        = 'some_T_atlas.bin',
(PID.TID 0000.0001) > sdatfile        = 'some_S_atlas.bin',
(PID.TID 0000.0001) > temperrfile     = 'some_T_sigma.bin',
(PID.TID 0000.0001) > salterrfile     = 'some_S_sigma.bin',
(PID.TID 0000.0001) >#
(PID.TID 0000.0001) > mult_temp   = 0.,
(PID.TID 0000.0001) > mult_salt   = 0.,
(PID.TID 0000.0001) >#
(PID.TID 0000.0001) > cost_iprec  = 32,
(PID.TID 0000.0001) > cost_yftype = 'RL',
(PID.TID 0000.0001) >#
(PID.TID 0000.0001) > /
(PID.TID 0000.0001) >#
(PID.TID 0000.0001) > &ECCO_GENCOST_NML
(PID.TID 0000.0001) > /
(PID.TID 0000.0001) >#
(PID.TID 0000.0001) 
(PID.TID 0000.0001) ECCO_READPARMS: finished reading #1: ecco_cost_nml
(PID.TID 0000.0001) ECCO_READPARMS: finished reading #2: ecco_gencost_nml
(PID.TID 0000.0001) ECCO_READPARMS: done
(PID.TID 0000.0001) PROFILES_READPARMS: opening data.profiles
(PID.TID 0000.0001)  OPEN_COPY_DATA_FILE: opening file data.profiles
(PID.TID 0000.0001) // =======================================================
(PID.TID 0000.0001) // Parameter file "data.profiles"
(PID.TID 0000.0001) // =======================================================
(PID.TID 0000.0001) >#
(PID.TID 0000.0001) ># ******************
(PID.TID 0000.0001) ># PROFILES cost function
(PID.TID 0000.0001) ># ******************
(PID.TID 0000.0001) > &PROFILES_NML
(PID.TID 0000.0001) > profilesDoGenGrid=.TRUE.,
(PID.TID 0000.0001) > profilesDir='profiles',
(PID.TID 0000.0001) >#
(PID.TID 0000.0001) > profilesfiles(1)= 'some_TS_atlas.sortedInTime',
(PID.TID 0000.0001) > mult_profiles(1,1)   = 1.,
(PID.TID 0000.0001) > mult_profiles(1,2)   = 1.,
(PID.TID 0000.0001) >#
(PID.TID 0000.0001) > /
(PID.TID 0000.0001) 
(PID.TID 0000.0001) PROFILES_READPARMS: finished reading data.profiles
(PID.TID 0000.0001) SET_PARMS: done
==> SYSTEM CALL (from INI_MODEL_IO): > mkdir -p tapes <
==> SYSTEM CALL (from INI_MODEL_IO): > mkdir -p profiles <
(PID.TID 0000.0001) Enter INI_VERTICAL_GRID: setInterFDr=    T ; setCenterDr=    F
(PID.TID 0000.0001) tile:   1 ; Read from file grid_cs32.face001.bin
(PID.TID 0000.0001)   => xC yC dxF dyF rA xG yG dxV dyU rAz dxC dyC rAw rAs dxG dyG AngleCS AngleSN
(PID.TID 0000.0001) tile:   2 ; Read from file grid_cs32.face001.bin
(PID.TID 0000.0001)   => xC yC dxF dyF rA xG yG dxV dyU rAz dxC dyC rAw rAs dxG dyG AngleCS AngleSN
(PID.TID 0000.0001) tile:   3 ; Read from file grid_cs32.face001.bin
(PID.TID 0000.0001)   => xC yC dxF dyF rA xG yG dxV dyU rAz dxC dyC rAw rAs dxG dyG AngleCS AngleSN
(PID.TID 0000.0001) tile:   4 ; Read from file grid_cs32.face001.bin
(PID.TID 0000.0001)   => xC yC dxF dyF rA xG yG dxV dyU rAz dxC dyC rAw rAs dxG dyG AngleCS AngleSN
(PID.TID 0000.0001) tile:   5 ; Read from file grid_cs32.face002.bin
(PID.TID 0000.0001)   => xC yC dxF dyF rA xG yG dxV dyU rAz dxC dyC rAw rAs dxG dyG AngleCS AngleSN
(PID.TID 0000.0001) tile:   6 ; Read from file grid_cs32.face002.bin
(PID.TID 0000.0001)   => xC yC dxF dyF rA xG yG dxV dyU rAz dxC dyC rAw rAs dxG dyG AngleCS AngleSN
(PID.TID 0000.0001) tile:   7 ; Read from file grid_cs32.face002.bin
(PID.TID 0000.0001)   => xC yC dxF dyF rA xG yG dxV dyU rAz dxC dyC rAw rAs dxG dyG AngleCS AngleSN
(PID.TID 0000.0001) tile:   8 ; Read from file grid_cs32.face002.bin
(PID.TID 0000.0001)   => xC yC dxF dyF rA xG yG dxV dyU rAz dxC dyC rAw rAs dxG dyG AngleCS AngleSN
(PID.TID 0000.0001) tile:   9 ; Read from file grid_cs32.face003.bin
(PID.TID 0000.0001)   => xC yC dxF dyF rA xG yG dxV dyU rAz dxC dyC rAw rAs dxG dyG AngleCS AngleSN
(PID.TID 0000.0001) tile:  10 ; Read from file grid_cs32.face003.bin
(PID.TID 0000.0001)   => xC yC dxF dyF rA xG yG dxV dyU rAz dxC dyC rAw rAs dxG dyG AngleCS AngleSN
(PID.TID 0000.0001) tile:  11 ; Read from file grid_cs32.face003.bin
(PID.TID 0000.0001)   => xC yC dxF dyF rA xG yG dxV dyU rAz dxC dyC rAw rAs dxG dyG AngleCS AngleSN
(PID.TID 0000.0001) tile:  12 ; Read from file grid_cs32.face003.bin
(PID.TID 0000.0001)   => xC yC dxF dyF rA xG yG dxV dyU rAz dxC dyC rAw rAs dxG dyG AngleCS AngleSN
(PID.TID 0000.0001) tile:  13 ; Read from file grid_cs32.face004.bin
(PID.TID 0000.0001)   => xC yC dxF dyF rA xG yG dxV dyU rAz dxC dyC rAw rAs dxG dyG AngleCS AngleSN
(PID.TID 0000.0001) tile:  14 ; Read from file grid_cs32.face004.bin
(PID.TID 0000.0001)   => xC yC dxF dyF rA xG yG dxV dyU rAz dxC dyC rAw rAs dxG dyG AngleCS AngleSN
(PID.TID 0000.0001) tile:  15 ; Read from file grid_cs32.face004.bin
(PID.TID 0000.0001)   => xC yC dxF dyF rA xG yG dxV dyU rAz dxC dyC rAw rAs dxG dyG AngleCS AngleSN
(PID.TID 0000.0001) tile:  16 ; Read from file grid_cs32.face004.bin
(PID.TID 0000.0001)   => xC yC dxF dyF rA xG yG dxV dyU rAz dxC dyC rAw rAs dxG dyG AngleCS AngleSN
(PID.TID 0000.0001) tile:  17 ; Read from file grid_cs32.face005.bin
(PID.TID 0000.0001)   => xC yC dxF dyF rA xG yG dxV dyU rAz dxC dyC rAw rAs dxG dyG AngleCS AngleSN
(PID.TID 0000.0001) tile:  18 ; Read from file grid_cs32.face005.bin
(PID.TID 0000.0001)   => xC yC dxF dyF rA xG yG dxV dyU rAz dxC dyC rAw rAs dxG dyG AngleCS AngleSN
(PID.TID 0000.0001) tile:  19 ; Read from file grid_cs32.face005.bin
(PID.TID 0000.0001)   => xC yC dxF dyF rA xG yG dxV dyU rAz dxC dyC rAw rAs dxG dyG AngleCS AngleSN
(PID.TID 0000.0001) tile:  20 ; Read from file grid_cs32.face005.bin
(PID.TID 0000.0001)   => xC yC dxF dyF rA xG yG dxV dyU rAz dxC dyC rAw rAs dxG dyG AngleCS AngleSN
(PID.TID 0000.0001) tile:  21 ; Read from file grid_cs32.face006.bin
(PID.TID 0000.0001)   => xC yC dxF dyF rA xG yG dxV dyU rAz dxC dyC rAw rAs dxG dyG AngleCS AngleSN
(PID.TID 0000.0001) tile:  22 ; Read from file grid_cs32.face006.bin
(PID.TID 0000.0001)   => xC yC dxF dyF rA xG yG dxV dyU rAz dxC dyC rAw rAs dxG dyG AngleCS AngleSN
(PID.TID 0000.0001) tile:  23 ; Read from file grid_cs32.face006.bin
(PID.TID 0000.0001)   => xC yC dxF dyF rA xG yG dxV dyU rAz dxC dyC rAw rAs dxG dyG AngleCS AngleSN
(PID.TID 0000.0001) tile:  24 ; Read from file grid_cs32.face006.bin
(PID.TID 0000.0001)   => xC yC dxF dyF rA xG yG dxV dyU rAz dxC dyC rAw rAs dxG dyG AngleCS AngleSN
(PID.TID 0000.0001) %MON XC_max                       =   1.7854351589505E+02
(PID.TID 0000.0001) %MON XC_min                       =  -1.7854351589505E+02
(PID.TID 0000.0001) %MON XC_mean                      =   2.0724163126336E-15
(PID.TID 0000.0001) %MON XC_sd                        =   1.0355545336287E+02
(PID.TID 0000.0001) %MON XG_max                       =   1.8000000000000E+02
(PID.TID 0000.0001) %MON XG_min                       =  -1.7708797161002E+02
(PID.TID 0000.0001) %MON XG_mean                      =   1.8603515625000E+00
(PID.TID 0000.0001) %MON XG_sd                        =   1.0357130300504E+02
(PID.TID 0000.0001) %MON DXC_max                      =   3.2375185836900E+05
(PID.TID 0000.0001) %MON DXC_min                      =   1.1142031410131E+05
(PID.TID 0000.0001) %MON DXC_mean                     =   2.8605689051214E+05
(PID.TID 0000.0001) %MON DXC_sd                       =   3.4042087138252E+04
(PID.TID 0000.0001) %MON DXF_max                      =   3.2369947500827E+05
(PID.TID 0000.0001) %MON DXF_min                      =   1.2020820513318E+05
(PID.TID 0000.0001) %MON DXF_mean                     =   2.8605437324820E+05
(PID.TID 0000.0001) %MON DXF_sd                       =   3.4050524252539E+04
(PID.TID 0000.0001) %MON DXG_max                      =   3.2375195872773E+05
(PID.TID 0000.0001) %MON DXG_min                      =   1.0098378008791E+05
(PID.TID 0000.0001) %MON DXG_mean                     =   2.8603818508931E+05
(PID.TID 0000.0001) %MON DXG_sd                       =   3.4140406908005E+04
(PID.TID 0000.0001) %MON DXV_max                      =   3.2380418162750E+05
(PID.TID 0000.0001) %MON DXV_min                      =   8.0152299824136E+04
(PID.TID 0000.0001) %MON DXV_mean                     =   2.8603970633619E+05
(PID.TID 0000.0001) %MON DXV_sd                       =   3.4145142117723E+04
(PID.TID 0000.0001) %MON YC_max                       =   8.7940663871962E+01
(PID.TID 0000.0001) %MON YC_min                       =  -8.7940663871962E+01
(PID.TID 0000.0001) %MON YC_mean                      =   1.1842378929335E-15
(PID.TID 0000.0001) %MON YC_sd                        =   3.8676242969072E+01
(PID.TID 0000.0001) %MON YG_max                       =   9.0000000000000E+01
(PID.TID 0000.0001) %MON YG_min                       =  -9.0000000000000E+01
(PID.TID 0000.0001) %MON YG_mean                      =   2.9605947323338E-15
(PID.TID 0000.0001) %MON YG_sd                        =   3.8676895860710E+01
(PID.TID 0000.0001) %MON DYC_max                      =   3.2375185836900E+05
(PID.TID 0000.0001) %MON DYC_min                      =   1.1142031410131E+05
(PID.TID 0000.0001) %MON DYC_mean                     =   2.8605689051214E+05
(PID.TID 0000.0001) %MON DYC_sd                       =   3.4042087138252E+04
(PID.TID 0000.0001) %MON DYF_max                      =   3.2369947500827E+05
(PID.TID 0000.0001) %MON DYF_min                      =   1.2020820513318E+05
(PID.TID 0000.0001) %MON DYF_mean                     =   2.8605437324820E+05
(PID.TID 0000.0001) %MON DYF_sd                       =   3.4050524252539E+04
(PID.TID 0000.0001) %MON DYG_max                      =   3.2375195872773E+05
(PID.TID 0000.0001) %MON DYG_min                      =   1.0098378008791E+05
(PID.TID 0000.0001) %MON DYG_mean                     =   2.8603818508931E+05
(PID.TID 0000.0001) %MON DYG_sd                       =   3.4140406908005E+04
(PID.TID 0000.0001) %MON DYU_max                      =   3.2380418162750E+05
(PID.TID 0000.0001) %MON DYU_min                      =   8.0152299824136E+04
(PID.TID 0000.0001) %MON DYU_mean                     =   2.8603970633619E+05
(PID.TID 0000.0001) %MON DYU_sd                       =   3.4145142117723E+04
(PID.TID 0000.0001) %MON RA_max                       =   1.0479260248419E+11
(PID.TID 0000.0001) %MON RA_min                       =   1.4019007022556E+10
(PID.TID 0000.0001) %MON RA_mean                      =   8.2992246709265E+10
(PID.TID 0000.0001) %MON RA_sd                        =   1.7509089299457E+10
(PID.TID 0000.0001) %MON RAW_max                      =   1.0480965274559E+11
(PID.TID 0000.0001) %MON RAW_min                      =   1.2166903467143E+10
(PID.TID 0000.0001) %MON RAW_mean                     =   8.2992246709235E+10
(PID.TID 0000.0001) %MON RAW_sd                       =   1.7481917919656E+10
(PID.TID 0000.0001) %MON RAS_max                      =   1.0480965274559E+11
(PID.TID 0000.0001) %MON RAS_min                      =   1.2166903467143E+10
(PID.TID 0000.0001) %MON RAS_mean                     =   8.2992246709235E+10
(PID.TID 0000.0001) %MON RAS_sd                       =   1.7481917919656E+10
(PID.TID 0000.0001) %MON RAZ_max                      =   1.0484349334619E+11
(PID.TID 0000.0001) %MON RAZ_min                      =   8.8317900612505E+09
(PID.TID 0000.0001) %MON RAZ_mean                     =   8.2992246709235E+10
(PID.TID 0000.0001) %MON RAZ_sd                       =   1.7482297311044E+10
(PID.TID 0000.0001) %MON AngleCS_max                  =   9.9999994756719E-01
(PID.TID 0000.0001) %MON AngleCS_min                  =  -9.9968286884824E-01
(PID.TID 0000.0001) %MON AngleCS_mean                 =   3.3078850405987E-01
(PID.TID 0000.0001) %MON AngleCS_sd                   =   6.2496317138039E-01
(PID.TID 0000.0001) %MON AngleSN_max                  =   9.9968286884824E-01
(PID.TID 0000.0001) %MON AngleSN_min                  =  -9.9999994756719E-01
(PID.TID 0000.0001) %MON AngleSN_mean                 =  -3.3078850405987E-01
(PID.TID 0000.0001) %MON AngleSN_sd                   =   6.2496317138039E-01
(PID.TID 0000.0001) 
(PID.TID 0000.0001) // =======================================================
(PID.TID 0000.0001) // Calendar configuration >>> START <<<
(PID.TID 0000.0001) // =======================================================
(PID.TID 0000.0001) 
(PID.TID 0000.0001) modelstart = /* Start time of the model integration [s] */
(PID.TID 0000.0001)                 0.000000000000000E+00
(PID.TID 0000.0001)     ;
(PID.TID 0000.0001) modelend  = /* End time of the model integration [s] */
(PID.TID 0000.0001)                 2.880000000000000E+04
(PID.TID 0000.0001)     ;
(PID.TID 0000.0001) modelstep = /* Time interval for a model forward step [s] */
(PID.TID 0000.0001)                 3.600000000000000E+03
(PID.TID 0000.0001)     ;
(PID.TID 0000.0001) usingGregorianCalendar= /* Calendar Type: Gregorian Calendar */
(PID.TID 0000.0001)                   T
(PID.TID 0000.0001)     ;
(PID.TID 0000.0001) usingJulianCalendar = /* Calendar Type: Julian Calendar */
(PID.TID 0000.0001)                   F
(PID.TID 0000.0001)     ;
(PID.TID 0000.0001) usingModelCalendar  = /* Calendar Type: Model Calendar */
(PID.TID 0000.0001)                   F
(PID.TID 0000.0001)     ;
(PID.TID 0000.0001) modelstartdate YYYYMMDD = /* Model start date YYYY-MM-DD */
(PID.TID 0000.0001)                19480101
(PID.TID 0000.0001)     ;
(PID.TID 0000.0001)   modelstartdate HHMMSS = /* Model start date HH-MM-SS  */
(PID.TID 0000.0001)                  120000
(PID.TID 0000.0001)     ;
(PID.TID 0000.0001) modelenddate   YYYYMMDD = /* Model end date YYYY-MM-DD */
(PID.TID 0000.0001)                19480101
(PID.TID 0000.0001)     ;
(PID.TID 0000.0001)   modelenddate   HHMMSS = /* Model end date HH-MM-SS  */
(PID.TID 0000.0001)                  200000
(PID.TID 0000.0001)     ;
(PID.TID 0000.0001) intyears = /* Number of calendar years affected by the integration */
(PID.TID 0000.0001)                       1
(PID.TID 0000.0001)     ;
(PID.TID 0000.0001) intmonths= /* Number of calendar months affected by the integration */
(PID.TID 0000.0001)                       1
(PID.TID 0000.0001)     ;
(PID.TID 0000.0001) intdays = /* Number of calendar days affected by the integration */
(PID.TID 0000.0001)                       1
(PID.TID 0000.0001)     ;
(PID.TID 0000.0001) modeliter0 = /* Base timestep number  */
(PID.TID 0000.0001)                       0
(PID.TID 0000.0001)     ;
(PID.TID 0000.0001) modeliterend = /* Final timestep number  */
(PID.TID 0000.0001)                       8
(PID.TID 0000.0001)     ;
(PID.TID 0000.0001) modelintsteps= /* Number of model timesteps  */
(PID.TID 0000.0001)                       8
(PID.TID 0000.0001)     ;
(PID.TID 0000.0001) 
(PID.TID 0000.0001) // =======================================================
(PID.TID 0000.0001) // Calendar configuration  >>> END <<<
(PID.TID 0000.0001) // =======================================================
(PID.TID 0000.0001) 
(PID.TID 0000.0001) GAD_INIT_FIXED: GAD_OlMinSize=  2  0  2
(PID.TID 0000.0001) 
(PID.TID 0000.0001) // ===================================
(PID.TID 0000.0001) // GAD parameters :
(PID.TID 0000.0001) // ===================================
(PID.TID 0000.0001) tempAdvScheme =   /* Temp. Horiz.Advection scheme selector */
(PID.TID 0000.0001)                      30
(PID.TID 0000.0001)     ;
(PID.TID 0000.0001) tempVertAdvScheme =   /* Temp. Vert. Advection scheme selector */
(PID.TID 0000.0001)                       3
(PID.TID 0000.0001)     ;
(PID.TID 0000.0001) tempMultiDimAdvec =   /* use Muti-Dim Advec method for Temp */
(PID.TID 0000.0001)                   T
(PID.TID 0000.0001)     ;
(PID.TID 0000.0001) tempSOM_Advection = /* use 2nd Order Moment Advection for Temp */
(PID.TID 0000.0001)                   F
(PID.TID 0000.0001)     ;
(PID.TID 0000.0001) AdamsBashforthGt = /* apply Adams-Bashforth extrapolation on Gt */
(PID.TID 0000.0001)                   F
(PID.TID 0000.0001)     ;
(PID.TID 0000.0001) AdamsBashforth_T = /* apply Adams-Bashforth extrapolation on Temp */
(PID.TID 0000.0001)                   F
(PID.TID 0000.0001)     ;
(PID.TID 0000.0001) saltAdvScheme =   /* Salt. Horiz.advection scheme selector */
(PID.TID 0000.0001)                      30
(PID.TID 0000.0001)     ;
(PID.TID 0000.0001) saltVertAdvScheme =   /* Salt. Vert. Advection scheme selector */
(PID.TID 0000.0001)                       3
(PID.TID 0000.0001)     ;
(PID.TID 0000.0001) saltMultiDimAdvec =   /* use Muti-Dim Advec method for Salt */
(PID.TID 0000.0001)                   T
(PID.TID 0000.0001)     ;
(PID.TID 0000.0001) saltSOM_Advection = /* use 2nd Order Moment Advection for Salt */
(PID.TID 0000.0001)                   F
(PID.TID 0000.0001)     ;
(PID.TID 0000.0001) AdamsBashforthGs = /* apply Adams-Bashforth extrapolation on Gs */
(PID.TID 0000.0001)                   F
(PID.TID 0000.0001)     ;
(PID.TID 0000.0001) AdamsBashforth_S = /* apply Adams-Bashforth extrapolation on Salt */
(PID.TID 0000.0001)                   F
(PID.TID 0000.0001)     ;
(PID.TID 0000.0001) // ===================================
(PID.TID 0000.0001) 
(PID.TID 0000.0001) // =======================================================
(PID.TID 0000.0001) // External forcing (EXF) configuration >>> START <<<
(PID.TID 0000.0001) // =======================================================
(PID.TID 0000.0001) 
(PID.TID 0000.0001)  EXF general parameters:
(PID.TID 0000.0001) 
(PID.TID 0000.0001) exf_iprec = /* exf file precision */
(PID.TID 0000.0001)                      32
(PID.TID 0000.0001)     ;
(PID.TID 0000.0001) useExfYearlyFields = /* add extension _YEAR to input file names */
(PID.TID 0000.0001)                   F
(PID.TID 0000.0001)     ;
(PID.TID 0000.0001) twoDigitYear = /* use 2-digit year extension */
(PID.TID 0000.0001)                   F
(PID.TID 0000.0001)     ;
(PID.TID 0000.0001) exf_verbose = /* print more messages to STDOUT */
(PID.TID 0000.0001)                   F
(PID.TID 0000.0001)     ;
(PID.TID 0000.0001) useExfCheckRange = /* check for fields range */
(PID.TID 0000.0001)                   F
(PID.TID 0000.0001)     ;
(PID.TID 0000.0001) exf_monFreq = /* EXF monitor frequency [ s ] */
(PID.TID 0000.0001)                 7.200000000000000E+03
(PID.TID 0000.0001)     ;
(PID.TID 0000.0001) repeatPeriod = /* period for cycling forcing dataset [ s ] */
(PID.TID 0000.0001)                 3.153600000000000E+07
(PID.TID 0000.0001)     ;
(PID.TID 0000.0001) climTempFreeze= /* Minimum climatological temperature [deg.C] */
(PID.TID 0000.0001)                -1.900000000000000E+00
(PID.TID 0000.0001)     ;
(PID.TID 0000.0001) windStressMax = /* Maximum absolute windstress [ Pa ] */
(PID.TID 0000.0001)                 2.000000000000000E+00
(PID.TID 0000.0001)     ;
(PID.TID 0000.0001) stressIsOnCgrid = /* set u,v_stress on Arakawa C-grid */
(PID.TID 0000.0001)                   F
(PID.TID 0000.0001)     ;
(PID.TID 0000.0001) cen2kel = /* conversion of deg. Centigrade to Kelvin [K] */
(PID.TID 0000.0001)                 2.731500000000000E+02
(PID.TID 0000.0001)     ;
(PID.TID 0000.0001) gravity_mks= /* gravitational acceleration [m/s^2] */
(PID.TID 0000.0001)                 9.810000000000000E+00
(PID.TID 0000.0001)     ;
(PID.TID 0000.0001) atmrho =  /* mean atmospheric density [kg/m^3] */
(PID.TID 0000.0001)                 1.220000000000000E+00
(PID.TID 0000.0001)     ;
(PID.TID 0000.0001) atmcp =  /* mean atmospheric specific heat [J/kg/K] */
(PID.TID 0000.0001)                 1.005000000000000E+03
(PID.TID 0000.0001)     ;
(PID.TID 0000.0001) flamb =  /* latent heat of evaporation [J/kg] */
(PID.TID 0000.0001)                 2.500000000000000E+06
(PID.TID 0000.0001)     ;
(PID.TID 0000.0001) flami =  /* latent heat of pure-ice melting [J/kg] */
(PID.TID 0000.0001)                 3.340000000000000E+05
(PID.TID 0000.0001)     ;
(PID.TID 0000.0001) cvapor_fac = /* const. for Saturation calculation [?] */
(PID.TID 0000.0001)                 6.403800000000000E+05
(PID.TID 0000.0001)     ;
(PID.TID 0000.0001) cvapor_exp = /* const. for Saturation calculation [?] */
(PID.TID 0000.0001)                 5.107400000000000E+03
(PID.TID 0000.0001)     ;
(PID.TID 0000.0001) cvapor_fac_ice= /* const. for Saturation calculation [?] */
(PID.TID 0000.0001)                 1.163780000000000E+07
(PID.TID 0000.0001)     ;
(PID.TID 0000.0001) cvapor_exp_ice= /* const. for Saturation calculation [?] */
(PID.TID 0000.0001)                 5.897800000000000E+03
(PID.TID 0000.0001)     ;
(PID.TID 0000.0001) humid_fac = /* humidity coef. in virtual temp. [(kg/kg)^-1] */
(PID.TID 0000.0001)                 6.080000000000000E-01
(PID.TID 0000.0001)     ;
(PID.TID 0000.0001) gamma_blk = /* adiabatic lapse rate [?] */
(PID.TID 0000.0001)                 1.000000000000000E-02
(PID.TID 0000.0001)     ;
(PID.TID 0000.0001) saltsat = /* reduction of Qsat over salty water [-] */
(PID.TID 0000.0001)                 9.800000000000000E-01
(PID.TID 0000.0001)     ;
(PID.TID 0000.0001) noNegativeEvap = /* prevent negative Evaporation */
(PID.TID 0000.0001)                   F
(PID.TID 0000.0001)     ;
(PID.TID 0000.0001) sstExtrapol = /* extrapolation coeff from lev. 1 & 2 to surf [-] */
(PID.TID 0000.0001)                 0.000000000000000E+00
(PID.TID 0000.0001)     ;
(PID.TID 0000.0001) cDrag_1 = /* coef used in drag calculation [?] */
(PID.TID 0000.0001)                 2.700000000000000E-03
(PID.TID 0000.0001)     ;
(PID.TID 0000.0001) cDrag_2 = /* coef used in drag calculation [?] */
(PID.TID 0000.0001)                 1.420000000000000E-04
(PID.TID 0000.0001)     ;
(PID.TID 0000.0001) cDrag_3 = /* coef used in drag calculation [?] */
(PID.TID 0000.0001)                 7.640000000000000E-05
(PID.TID 0000.0001)     ;
(PID.TID 0000.0001) cStanton_1 = /* coef used in Stanton number calculation [?] */
(PID.TID 0000.0001)                 3.270000000000000E-02
(PID.TID 0000.0001)     ;
(PID.TID 0000.0001) cStanton_2 = /* coef used in Stanton number calculation [?] */
(PID.TID 0000.0001)                 1.800000000000000E-02
(PID.TID 0000.0001)     ;
(PID.TID 0000.0001) cDalton = /* coef used in Dalton number calculation [?] */
(PID.TID 0000.0001)                 3.460000000000000E-02
(PID.TID 0000.0001)     ;
(PID.TID 0000.0001) exf_scal_BulkCdn= /* Drag coefficient scaling factor [-] */
(PID.TID 0000.0001)                 1.000000000000000E+00
(PID.TID 0000.0001)     ;
(PID.TID 0000.0001) zolmin = /* minimum stability parameter [?] */
(PID.TID 0000.0001)                -1.000000000000000E+02
(PID.TID 0000.0001)     ;
(PID.TID 0000.0001) psim_fac = /* coef used in turbulent fluxes calculation [-] */
(PID.TID 0000.0001)                 5.000000000000000E+00
(PID.TID 0000.0001)     ;
(PID.TID 0000.0001) zref =  /* reference height [ m ] */
(PID.TID 0000.0001)                 1.000000000000000E+01
(PID.TID 0000.0001)     ;
(PID.TID 0000.0001) hu =  /* height of mean wind [ m ] */
(PID.TID 0000.0001)                 1.000000000000000E+01
(PID.TID 0000.0001)     ;
(PID.TID 0000.0001) ht =  /* height of mean temperature [ m ] */
(PID.TID 0000.0001)                 1.000000000000000E+01
(PID.TID 0000.0001)     ;
(PID.TID 0000.0001) hq =  /* height of mean spec.humidity [ m ] */
(PID.TID 0000.0001)                 1.000000000000000E+01
(PID.TID 0000.0001)     ;
(PID.TID 0000.0001) uMin = /* minimum wind speed [m/s] */
(PID.TID 0000.0001)                 5.000000000000000E-01
(PID.TID 0000.0001)     ;
(PID.TID 0000.0001) useStabilityFct_overIce= /* transfert Coeffs over sea-ice depend on stability */
(PID.TID 0000.0001)                   F
(PID.TID 0000.0001)     ;
(PID.TID 0000.0001) exf_iceCd = /* drag coefficient over sea-ice (fixed) [-] */
(PID.TID 0000.0001)                 1.630000000000000E-03
(PID.TID 0000.0001)     ;
(PID.TID 0000.0001) exf_iceCe = /* transfert coeff. over sea-ice, for Evap (fixed) [-] */
(PID.TID 0000.0001)                 1.630000000000000E-03
(PID.TID 0000.0001)     ;
(PID.TID 0000.0001) exf_iceCh = /* transfert coeff. over sea-ice, Sens.Heat.(fixed)[-] */
(PID.TID 0000.0001)                 1.630000000000000E-03
(PID.TID 0000.0001)     ;
(PID.TID 0000.0001) exf_albedo =  /* Sea-water albedo [-] */
(PID.TID 0000.0001)                 6.600000000000000E-02
(PID.TID 0000.0001)     ;
(PID.TID 0000.0001) useExfZenAlbedo = /* Sea-water albedo varies with zenith angle */
(PID.TID 0000.0001)                   F
(PID.TID 0000.0001)     ;
(PID.TID 0000.0001) select_ZenAlbedo = /* Sea-water albedo computation method */
(PID.TID 0000.0001)                       0
(PID.TID 0000.0001)     ;
(PID.TID 0000.0001) useExfZenIncoming = /* compute incoming solar radiation */
(PID.TID 0000.0001)                   F
(PID.TID 0000.0001)     ;
(PID.TID 0000.0001) ocean_emissivity = /* longwave ocean-surface emissivity [-] */
(PID.TID 0000.0001)                 1.000000000000000E+00
(PID.TID 0000.0001)     ;
(PID.TID 0000.0001) ice_emissivity = /* longwave seaice emissivity [-] */
(PID.TID 0000.0001)                 9.500000000000000E-01
(PID.TID 0000.0001)     ;
(PID.TID 0000.0001) snow_emissivity = /* longwave snow  emissivity [-] */
(PID.TID 0000.0001)                 9.500000000000000E-01
(PID.TID 0000.0001)     ;
(PID.TID 0000.0001) 
(PID.TID 0000.0001)  EXF main CPP flags:
(PID.TID 0000.0001) 
(PID.TID 0000.0001) // USE_EXF_INTERPOLATION:              defined
(PID.TID 0000.0001) // ALLOW_ATM_TEMP:                     defined
(PID.TID 0000.0001) // ALLOW_ATM_WIND (useAtmWind):        defined
(PID.TID 0000.0001) // ALLOW_DOWNWARD_RADIATION:           defined
(PID.TID 0000.0001) // ALLOW_BULKFORMULAE:                 defined
(PID.TID 0000.0001) 
(PID.TID 0000.0001)    Net shortwave flux forcing starts at                0.
(PID.TID 0000.0001)    Net shortwave flux forcing period is                0.
(PID.TID 0000.0001)    Net shortwave flux forcing is read from file:
(PID.TID 0000.0001)    >>    <<
(PID.TID 0000.0001)    interpolate "swflux" (method=  1 ):
(PID.TID 0000.0001)    lon0= 6.173E+04, nlon=    32, lon_inc= 1.235E+05
(PID.TID 0000.0001)    lat0= 6.173E+04, nlat=    32, lat_inc= 1.235E+05
(PID.TID 0000.0001) 
(PID.TID 0000.0001)    Zonal wind forcing starts at                  -31568400.
(PID.TID 0000.0001)    Zonal wind forcing period is                      21600.
(PID.TID 0000.0001)    Zonal wind forcing is read from file:
(PID.TID 0000.0001)    >>  CORE2_u10m_6hrly_r2_cnyf  <<
(PID.TID 0000.0001)    interpolate "uwind" (method= 12 ):
(PID.TID 0000.0001)    lon0=   0.00000, nlon=   192, lon_inc= 1.8750000
(PID.TID 0000.0001)    lat0= -88.54200, nlat=    94, inc(min,max)= 1.88880 1.90480
(PID.TID 0000.0001) 
(PID.TID 0000.0001)    Meridional wind forcing starts at             -31568400.
(PID.TID 0000.0001)    Meridional wind forcing period is                 21600.
(PID.TID 0000.0001)    Meridional wind forcing is read from file:
(PID.TID 0000.0001)    >>  CORE2_v10m_6hrly_r2_cnyf  <<
(PID.TID 0000.0001)    interpolate "vwind" (method= 22 ):
(PID.TID 0000.0001)    lon0=   0.00000, nlon=   192, lon_inc= 1.8750000
(PID.TID 0000.0001)    lat0= -88.54200, nlat=    94, inc(min,max)= 1.88880 1.90480
(PID.TID 0000.0001)     Interp. U & V comp. together: uvInterp_wind =    T
(PID.TID 0000.0001) 
(PID.TID 0000.0001)    Atmospheric temperature starts at             -31568400.
(PID.TID 0000.0001)    Atmospheric temperature period is                 21600.
(PID.TID 0000.0001)    Atmospheric temperature is read from file:
(PID.TID 0000.0001)    >>  CORE2_tmp10m_6hrly_r2_cnyf  <<
(PID.TID 0000.0001)    interpolate "atemp" (method=  1 ):
(PID.TID 0000.0001)    lon0=   0.00000, nlon=   192, lon_inc= 1.8750000
(PID.TID 0000.0001)    lat0= -88.54200, nlat=    94, inc(min,max)= 1.88880 1.90480
(PID.TID 0000.0001) 
(PID.TID 0000.0001)    Atmospheric specific humidity starts at       -31568400.
(PID.TID 0000.0001)    Atmospheric specific humidity period is           21600.
(PID.TID 0000.0001)    Atmospheric specific humidity is read from file:
(PID.TID 0000.0001)    >>  CORE2_spfh10m_6hrly_r2_cnyf  <<
(PID.TID 0000.0001)    interpolate "aqh" (method=  1 ):
(PID.TID 0000.0001)    lon0=   0.00000, nlon=   192, lon_inc= 1.8750000
(PID.TID 0000.0001)    lat0= -88.54200, nlat=    94, inc(min,max)= 1.88880 1.90480
(PID.TID 0000.0001) 
(PID.TID 0000.0001)    Net longwave flux forcing starts at                 0.
(PID.TID 0000.0001)    Net longwave flux forcing period is                 0.
(PID.TID 0000.0001)    Net longwave flux forcing is read from file:
(PID.TID 0000.0001)    >>    <<
(PID.TID 0000.0001)    interpolate "lwflux" (method=  1 ):
(PID.TID 0000.0001)    lon0= 6.173E+04, nlon=    32, lon_inc= 1.235E+05
(PID.TID 0000.0001)    lat0= 6.173E+04, nlat=    32, lat_inc= 1.235E+05
(PID.TID 0000.0001) 
(PID.TID 0000.0001)    Precipitation data set starts at              -30326400.
(PID.TID 0000.0001)    Precipitation data period is                    2628000.
(PID.TID 0000.0001)    Precipitation data is read from file:
(PID.TID 0000.0001)    >>  CORE2_rain_monthly_r2_cnyf  <<
(PID.TID 0000.0001)    interpolate "precip" (method=  1 ):
(PID.TID 0000.0001)    lon0=   0.00000, nlon=   192, lon_inc= 1.8750000
(PID.TID 0000.0001)    lat0= -88.54200, nlat=    94, inc(min,max)= 1.88880 1.90480
(PID.TID 0000.0001) 
(PID.TID 0000.0001) // EXF_READ_EVAP:                  NOT defined
(PID.TID 0000.0001) 
(PID.TID 0000.0001) // ALLOW_RUNOFF:                       defined
(PID.TID 0000.0001)    Runoff starts at               0.
(PID.TID 0000.0001)    Runoff period is         2628000.
(PID.TID 0000.0001)    Runoff is read from file:
(PID.TID 0000.0001)    >>    <<
(PID.TID 0000.0001) // ALLOW_RUNOFTEMP:                NOT defined
(PID.TID 0000.0001)    assume "runoff" on model-grid (no interpolation)
(PID.TID 0000.0001) 
(PID.TID 0000.0001)    Downward shortwave flux forcing starts at        -31536000.
(PID.TID 0000.0001)    Downward shortwave flux forcing period is            86400.
(PID.TID 0000.0001)    Downward shortwave flux forcing is read from file:
(PID.TID 0000.0001)    >>  CORE2_dsw_daily_r2_cnyf  <<
(PID.TID 0000.0001)    interpolate "swdown" (method=  1 ):
(PID.TID 0000.0001)    lon0=   0.00000, nlon=   192, lon_inc= 1.8750000
(PID.TID 0000.0001)    lat0= -88.54200, nlat=    94, inc(min,max)= 1.88880 1.90480
(PID.TID 0000.0001) 
(PID.TID 0000.0001)    Downward longwave flux forcing starts at         -31536000.
(PID.TID 0000.0001)    Downward longwave flux forcing period is             86400.
(PID.TID 0000.0001)    Downward longwave flux forcing is read from file:
(PID.TID 0000.0001)    >>  CORE2_dlw_daily_r2_cnyf  <<
(PID.TID 0000.0001)    interpolate "lwdown" (method=  1 ):
(PID.TID 0000.0001)    lon0=   0.00000, nlon=   192, lon_inc= 1.8750000
(PID.TID 0000.0001)    lat0= -88.54200, nlat=    94, inc(min,max)= 1.88880 1.90480
(PID.TID 0000.0001) 
(PID.TID 0000.0001)    Atmospheric pressure forcing starts at                0.
(PID.TID 0000.0001)    Atmospheric pressure forcing period is            21600.
(PID.TID 0000.0001)    Atmospheric pressureforcing is read from file:
(PID.TID 0000.0001)    >>    <<
(PID.TID 0000.0001)    interpolate "apressure" (method=  1 ):
(PID.TID 0000.0001)    lon0=   0.00000, nlon=   192, lon_inc= 1.8750000
(PID.TID 0000.0001)    lat0= -88.54200, nlat=    94, inc(min,max)= 1.88880 1.90480
(PID.TID 0000.0001) 
(PID.TID 0000.0001) // =======================================================
(PID.TID 0000.0001) // External forcing (EXF) climatology configuration :
(PID.TID 0000.0001) // =======================================================
(PID.TID 0000.0001) 
(PID.TID 0000.0001) // ALLOW_CLIMSST_RELAXATION:           defined
(PID.TID 0000.0001) // ALLOW_CLIMSSS_RELAXATION:           defined
(PID.TID 0000.0001) 
(PID.TID 0000.0001)    Climatological SST starts at                   0.
(PID.TID 0000.0001)    Climatological SST period is                   0.
(PID.TID 0000.0001)    Climatological SST is read from file:
(PID.TID 0000.0001)    >>    <<
(PID.TID 0000.0001)    interpolate "climsst" (method=  2 ):
(PID.TID 0000.0001)    lon0= 6.173E+04, nlon=    32, lon_inc= 1.235E+05
(PID.TID 0000.0001)    lat0= 6.173E+04, nlat=    32, lat_inc= 1.235E+05
(PID.TID 0000.0001) 
(PID.TID 0000.0001)    Climatological SSS starts at                   0.
(PID.TID 0000.0001)    Climatological SSS period is                 -12.
(PID.TID 0000.0001)    Climatological SSS is read from file:
(PID.TID 0000.0001)    >>  some_SSS_atlas.bin  <<
(PID.TID 0000.0001)    assume "climsss" on model-grid (no interpolation)
(PID.TID 0000.0001) 
(PID.TID 0000.0001) // =======================================================
(PID.TID 0000.0001) // External forcing (EXF) configuration  >>> END <<<
(PID.TID 0000.0001) // =======================================================
(PID.TID 0000.0001) 
smooth 2D default parameters:   30          0.          0.
smooth 3D default parameters:   30          0.          0.          0.
(PID.TID 0000.0001)  OPEN_COPY_DATA_FILE: opening file data.err
(PID.TID 0000.0001) // =======================================================
(PID.TID 0000.0001) // Parameter file "data.err"
(PID.TID 0000.0001) // =======================================================
(PID.TID 0000.0001) >1.0000
(PID.TID 0000.0001) >0.8317  0.4233
(PID.TID 0000.0001) >0.8643  0.2526
(PID.TID 0000.0001) >0.9149  0.1984
(PID.TID 0000.0001) >0.9624  0.1776
(PID.TID 0000.0001) >1.0082  0.1647
(PID.TID 0000.0001) >1.0377  0.1547
(PID.TID 0000.0001) >1.0513  0.1472
(PID.TID 0000.0001) >1.0652  0.1397
(PID.TID 0000.0001) >1.0666  0.1354
(PID.TID 0000.0001) >1.0682  0.1312
(PID.TID 0000.0001) >1.0695  0.1289
(PID.TID 0000.0001) >1.0702  0.1283
(PID.TID 0000.0001) >1.0669  0.1274
(PID.TID 0000.0001) >1.0419  0.1241
(PID.TID 0000.0001) >1.0094  0.1202
(PID.TID 0000.0001) >0.9605  0.1150
(PID.TID 0000.0001) >0.8961  0.1085
(PID.TID 0000.0001) >0.8314  0.1013
(PID.TID 0000.0001) >0.7588  0.0932
(PID.TID 0000.0001) >0.7055  0.0870
(PID.TID 0000.0001) >0.6744  0.0808
(PID.TID 0000.0001) >0.6355  0.0735
(PID.TID 0000.0001) >0.5794  0.0665
(PID.TID 0000.0001) >0.5250  0.0588
(PID.TID 0000.0001) >0.4699  0.0506
(PID.TID 0000.0001) >0.4113  0.0427
(PID.TID 0000.0001) >0.3484  0.0368
(PID.TID 0000.0001) >0.2855  0.0343
(PID.TID 0000.0001) >0.2380  0.0326
(PID.TID 0000.0001) >0.2035  0.0305
(PID.TID 0000.0001) >0.1687  0.0278
(PID.TID 0000.0001) >0.1459  0.0251
(PID.TID 0000.0001) >0.1298  0.0228
(PID.TID 0000.0001) >0.1132  0.0201
(PID.TID 0000.0001) >0.1006  0.0173
(PID.TID 0000.0001) >0.0866  0.0142
(PID.TID 0000.0001) >0.0851  0.0143
(PID.TID 0000.0001) >0.0808  0.0137
(PID.TID 0000.0001) >0.0736  0.0121
(PID.TID 0000.0001) >0.0651  0.0101
(PID.TID 0000.0001) >0.0603  0.0100
(PID.TID 0000.0001) >0.0541  0.0100
(PID.TID 0000.0001) >0.0522  0.0100
(PID.TID 0000.0001) >0.0509  0.0100
(PID.TID 0000.0001) >0.0450  0.0100
(PID.TID 0000.0001) >0.0416  0.0100
(PID.TID 0000.0001) >0.0387  0.0100
(PID.TID 0000.0001) >0.0317  0.0100
(PID.TID 0000.0001) >0.0352  0.0100
(PID.TID 0000.0001) >0.0100  0.0100
(PID.TID 0000.0001) 
(PID.TID 0000.0001) 
(PID.TID 0000.0001) // =======================================================
(PID.TID 0000.0001) // ECCO cost function configuration  >>> START <<<
(PID.TID 0000.0001) // =======================================================
(PID.TID 0000.0001) 
(PID.TID 0000.0001)   Multipliers for the indivdual cost function contributions:
(PID.TID 0000.0001) 
(PID.TID 0000.0001)   Net heat flux:                 0.100E+01
(PID.TID 0000.0001)   Salt flux:                     0.100E+01
(PID.TID 0000.0001)   Zonal wind stress:             0.100E+01
(PID.TID 0000.0001)   Meridional wind stress:        0.100E+01
(PID.TID 0000.0001)   Mean sea surface height:       0.000E+00
(PID.TID 0000.0001)   Sea surface height anomalies:  0.100E+01
(PID.TID 0000.0001)   Temperature Lev.:              0.000E+00
(PID.TID 0000.0001)   Salinity Lev.:                 0.000E+00
(PID.TID 0000.0001)   Temperature ini.:              0.100E+01
(PID.TID 0000.0001)   Salinity ini.:                 0.100E+01
(PID.TID 0000.0001)   Sea level ini.:                0.000E+00
(PID.TID 0000.0001)   zonal velocity ini.:           0.000E+00
(PID.TID 0000.0001)   merid velocity ini.:           0.000E+00
(PID.TID 0000.0001)   TMI Sea surface temperature:   0.000E+00
(PID.TID 0000.0001)   Sea surface temperature:       0.000E+00
(PID.TID 0000.0001)   Sea surface salinity:         0.000E+00
(PID.TID 0000.0001)   CTD temperature:               0.000E+00
(PID.TID 0000.0001)   CTD salinity:                  0.000E+00
(PID.TID 0000.0001)   CTD clim temperature:          0.000E+00
(PID.TID 0000.0001)   CTD clim salinity:             0.000E+00
(PID.TID 0000.0001)   XBT Temperature:               0.000E+00
(PID.TID 0000.0001)   ARGO Temperature:               0.000E+00
(PID.TID 0000.0001)   ARGO Salt:                      0.000E+00
(PID.TID 0000.0001)   drifter velocities:            0.000E+00
(PID.TID 0000.0001)   drift between last and 1st year: 0.000E+00
(PID.TID 0000.0001)   drift between last and 1st year: 0.000E+00
(PID.TID 0000.0001)   Ageostrophic bdy flow:         0.000E+00
(PID.TID 0000.0001)   OB North:                      0.000E+00
(PID.TID 0000.0001)   OB South:                      0.000E+00
(PID.TID 0000.0001)   OB West:                       0.000E+00
(PID.TID 0000.0001)   OB East:                       0.000E+00
(PID.TID 0000.0001) 
(PID.TID 0000.0001) 
(PID.TID 0000.0001)   Temperature data are read from: some_T_atlas.bin
(PID.TID 0000.0001)   Salinity data are read from:    some_S_atlas.bin
(PID.TID 0000.0001) 
(PID.TID 0000.0001) // =======================================================
(PID.TID 0000.0001) // insitu profiles model sampling >>> START <<<
(PID.TID 0000.0001) // =======================================================
(PID.TID 0000.0001) 
(PID.TID 0000.0001) 
(PID.TID 0000.0001)   profilesDir profiles/
(PID.TID 0000.0001)   ALLOW_PROFILES_GENERICGRID was compiled
(PID.TID 0000.0001)   profilesDoGenGrid      T
(PID.TID 0000.0001)   profilesDoNcOutput     F
(PID.TID 0000.0001) 
(PID.TID 0000.0001) 
(PID.TID 0000.0001) profiles file   1 is some_TS_atlas.sortedInTime
(PID.TID 0000.0001)   opening some_TS_atlas.sortedInTime.nc
(PID.TID 0000.0001)   file ID is            65536
(PID.TID 0000.0001)   no. of depth levels      50
(PID.TID 0000.0001)   no. of profiles        4420
(PID.TID 0000.0001)   within tile & run       237
(PID.TID 0000.0001)   incl. variables (T/F flags)    T    T    F    F    F    F
(PID.TID 0000.0001) 
(PID.TID 0000.0001) profiles file   2 is  (empty)
(PID.TID 0000.0001) 
(PID.TID 0000.0001) profiles file   3 is  (empty)
(PID.TID 0000.0001) 
(PID.TID 0000.0001) profiles file   4 is  (empty)
(PID.TID 0000.0001) 
(PID.TID 0000.0001) profiles file   5 is  (empty)
(PID.TID 0000.0001) 
(PID.TID 0000.0001) profiles file   6 is  (empty)
(PID.TID 0000.0001) 
(PID.TID 0000.0001) profiles file   7 is  (empty)
(PID.TID 0000.0001) 
(PID.TID 0000.0001) profiles file   8 is  (empty)
(PID.TID 0000.0001) 
(PID.TID 0000.0001) profiles file   9 is  (empty)
(PID.TID 0000.0001) 
(PID.TID 0000.0001) profiles file  10 is  (empty)
(PID.TID 0000.0001) 
(PID.TID 0000.0001) profiles file  11 is  (empty)
(PID.TID 0000.0001) 
(PID.TID 0000.0001) profiles file  12 is  (empty)
(PID.TID 0000.0001) 
(PID.TID 0000.0001) profiles file  13 is  (empty)
(PID.TID 0000.0001) 
(PID.TID 0000.0001) profiles file  14 is  (empty)
(PID.TID 0000.0001) 
(PID.TID 0000.0001) profiles file  15 is  (empty)
(PID.TID 0000.0001) 
(PID.TID 0000.0001) profiles file  16 is  (empty)
(PID.TID 0000.0001) 
(PID.TID 0000.0001) profiles file  17 is  (empty)
(PID.TID 0000.0001) 
(PID.TID 0000.0001) profiles file  18 is  (empty)
(PID.TID 0000.0001) 
(PID.TID 0000.0001) profiles file  19 is  (empty)
(PID.TID 0000.0001) 
(PID.TID 0000.0001) profiles file  20 is  (empty)
(PID.TID 0000.0001) 
(PID.TID 0000.0001) profiles file   1 is some_TS_atlas.sortedInTime
(PID.TID 0000.0001)   opening some_TS_atlas.sortedInTime.nc
(PID.TID 0000.0001)   file ID is           131072
(PID.TID 0000.0001)   no. of depth levels      50
(PID.TID 0000.0001)   no. of profiles        4420
(PID.TID 0000.0001)   within tile & run       152
(PID.TID 0000.0001)   incl. variables (T/F flags)    T    T    F    F    F    F
(PID.TID 0000.0001) 
(PID.TID 0000.0001) profiles file   2 is  (empty)
(PID.TID 0000.0001) 
(PID.TID 0000.0001) profiles file   3 is  (empty)
(PID.TID 0000.0001) 
(PID.TID 0000.0001) profiles file   4 is  (empty)
(PID.TID 0000.0001) 
(PID.TID 0000.0001) profiles file   5 is  (empty)
(PID.TID 0000.0001) 
(PID.TID 0000.0001) profiles file   6 is  (empty)
(PID.TID 0000.0001) 
(PID.TID 0000.0001) profiles file   7 is  (empty)
(PID.TID 0000.0001) 
(PID.TID 0000.0001) profiles file   8 is  (empty)
(PID.TID 0000.0001) 
(PID.TID 0000.0001) profiles file   9 is  (empty)
(PID.TID 0000.0001) 
(PID.TID 0000.0001) profiles file  10 is  (empty)
(PID.TID 0000.0001) 
(PID.TID 0000.0001) profiles file  11 is  (empty)
(PID.TID 0000.0001) 
(PID.TID 0000.0001) profiles file  12 is  (empty)
(PID.TID 0000.0001) 
(PID.TID 0000.0001) profiles file  13 is  (empty)
(PID.TID 0000.0001) 
(PID.TID 0000.0001) profiles file  14 is  (empty)
(PID.TID 0000.0001) 
(PID.TID 0000.0001) profiles file  15 is  (empty)
(PID.TID 0000.0001) 
(PID.TID 0000.0001) profiles file  16 is  (empty)
(PID.TID 0000.0001) 
(PID.TID 0000.0001) profiles file  17 is  (empty)
(PID.TID 0000.0001) 
(PID.TID 0000.0001) profiles file  18 is  (empty)
(PID.TID 0000.0001) 
(PID.TID 0000.0001) profiles file  19 is  (empty)
(PID.TID 0000.0001) 
(PID.TID 0000.0001) profiles file  20 is  (empty)
(PID.TID 0000.0001) 
(PID.TID 0000.0001) profiles file   1 is some_TS_atlas.sortedInTime
(PID.TID 0000.0001)   opening some_TS_atlas.sortedInTime.nc
(PID.TID 0000.0001)   file ID is           196608
(PID.TID 0000.0001)   no. of depth levels      50
(PID.TID 0000.0001)   no. of profiles        4420
(PID.TID 0000.0001)   within tile & run       205
(PID.TID 0000.0001)   incl. variables (T/F flags)    T    T    F    F    F    F
(PID.TID 0000.0001) 
(PID.TID 0000.0001) profiles file   2 is  (empty)
(PID.TID 0000.0001) 
(PID.TID 0000.0001) profiles file   3 is  (empty)
(PID.TID 0000.0001) 
(PID.TID 0000.0001) profiles file   4 is  (empty)
(PID.TID 0000.0001) 
(PID.TID 0000.0001) profiles file   5 is  (empty)
(PID.TID 0000.0001) 
(PID.TID 0000.0001) profiles file   6 is  (empty)
(PID.TID 0000.0001) 
(PID.TID 0000.0001) profiles file   7 is  (empty)
(PID.TID 0000.0001) 
(PID.TID 0000.0001) profiles file   8 is  (empty)
(PID.TID 0000.0001) 
(PID.TID 0000.0001) profiles file   9 is  (empty)
(PID.TID 0000.0001) 
(PID.TID 0000.0001) profiles file  10 is  (empty)
(PID.TID 0000.0001) 
(PID.TID 0000.0001) profiles file  11 is  (empty)
(PID.TID 0000.0001) 
(PID.TID 0000.0001) profiles file  12 is  (empty)
(PID.TID 0000.0001) 
(PID.TID 0000.0001) profiles file  13 is  (empty)
(PID.TID 0000.0001) 
(PID.TID 0000.0001) profiles file  14 is  (empty)
(PID.TID 0000.0001) 
(PID.TID 0000.0001) profiles file  15 is  (empty)
(PID.TID 0000.0001) 
(PID.TID 0000.0001) profiles file  16 is  (empty)
(PID.TID 0000.0001) 
(PID.TID 0000.0001) profiles file  17 is  (empty)
(PID.TID 0000.0001) 
(PID.TID 0000.0001) profiles file  18 is  (empty)
(PID.TID 0000.0001) 
(PID.TID 0000.0001) profiles file  19 is  (empty)
(PID.TID 0000.0001) 
(PID.TID 0000.0001) profiles file  20 is  (empty)
(PID.TID 0000.0001) 
(PID.TID 0000.0001) profiles file   1 is some_TS_atlas.sortedInTime
(PID.TID 0000.0001)   opening some_TS_atlas.sortedInTime.nc
(PID.TID 0000.0001)   file ID is           262144
(PID.TID 0000.0001)   no. of depth levels      50
(PID.TID 0000.0001)   no. of profiles        4420
(PID.TID 0000.0001)   within tile & run        45
(PID.TID 0000.0001)   incl. variables (T/F flags)    T    T    F    F    F    F
(PID.TID 0000.0001) 
(PID.TID 0000.0001) profiles file   2 is  (empty)
(PID.TID 0000.0001) 
(PID.TID 0000.0001) profiles file   3 is  (empty)
(PID.TID 0000.0001) 
(PID.TID 0000.0001) profiles file   4 is  (empty)
(PID.TID 0000.0001) 
(PID.TID 0000.0001) profiles file   5 is  (empty)
(PID.TID 0000.0001) 
(PID.TID 0000.0001) profiles file   6 is  (empty)
(PID.TID 0000.0001) 
(PID.TID 0000.0001) profiles file   7 is  (empty)
(PID.TID 0000.0001) 
(PID.TID 0000.0001) profiles file   8 is  (empty)
(PID.TID 0000.0001) 
(PID.TID 0000.0001) profiles file   9 is  (empty)
(PID.TID 0000.0001) 
(PID.TID 0000.0001) profiles file  10 is  (empty)
(PID.TID 0000.0001) 
(PID.TID 0000.0001) profiles file  11 is  (empty)
(PID.TID 0000.0001) 
(PID.TID 0000.0001) profiles file  12 is  (empty)
(PID.TID 0000.0001) 
(PID.TID 0000.0001) profiles file  13 is  (empty)
(PID.TID 0000.0001) 
(PID.TID 0000.0001) profiles file  14 is  (empty)
(PID.TID 0000.0001) 
(PID.TID 0000.0001) profiles file  15 is  (empty)
(PID.TID 0000.0001) 
(PID.TID 0000.0001) profiles file  16 is  (empty)
(PID.TID 0000.0001) 
(PID.TID 0000.0001) profiles file  17 is  (empty)
(PID.TID 0000.0001) 
(PID.TID 0000.0001) profiles file  18 is  (empty)
(PID.TID 0000.0001) 
(PID.TID 0000.0001) profiles file  19 is  (empty)
(PID.TID 0000.0001) 
(PID.TID 0000.0001) profiles file  20 is  (empty)
(PID.TID 0000.0001) 
(PID.TID 0000.0001) profiles file   1 is some_TS_atlas.sortedInTime
(PID.TID 0000.0001)   opening some_TS_atlas.sortedInTime.nc
(PID.TID 0000.0001)   file ID is           327680
(PID.TID 0000.0001)   no. of depth levels      50
(PID.TID 0000.0001)   no. of profiles        4420
(PID.TID 0000.0001)   within tile & run       250
(PID.TID 0000.0001)   incl. variables (T/F flags)    T    T    F    F    F    F
(PID.TID 0000.0001) 
(PID.TID 0000.0001) profiles file   2 is  (empty)
(PID.TID 0000.0001) 
(PID.TID 0000.0001) profiles file   3 is  (empty)
(PID.TID 0000.0001) 
(PID.TID 0000.0001) profiles file   4 is  (empty)
(PID.TID 0000.0001) 
(PID.TID 0000.0001) profiles file   5 is  (empty)
(PID.TID 0000.0001) 
(PID.TID 0000.0001) profiles file   6 is  (empty)
(PID.TID 0000.0001) 
(PID.TID 0000.0001) profiles file   7 is  (empty)
(PID.TID 0000.0001) 
(PID.TID 0000.0001) profiles file   8 is  (empty)
(PID.TID 0000.0001) 
(PID.TID 0000.0001) profiles file   9 is  (empty)
(PID.TID 0000.0001) 
(PID.TID 0000.0001) profiles file  10 is  (empty)
(PID.TID 0000.0001) 
(PID.TID 0000.0001) profiles file  11 is  (empty)
(PID.TID 0000.0001) 
(PID.TID 0000.0001) profiles file  12 is  (empty)
(PID.TID 0000.0001) 
(PID.TID 0000.0001) profiles file  13 is  (empty)
(PID.TID 0000.0001) 
(PID.TID 0000.0001) profiles file  14 is  (empty)
(PID.TID 0000.0001) 
(PID.TID 0000.0001) profiles file  15 is  (empty)
(PID.TID 0000.0001) 
(PID.TID 0000.0001) profiles file  16 is  (empty)
(PID.TID 0000.0001) 
(PID.TID 0000.0001) profiles file  17 is  (empty)
(PID.TID 0000.0001) 
(PID.TID 0000.0001) profiles file  18 is  (empty)
(PID.TID 0000.0001) 
(PID.TID 0000.0001) profiles file  19 is  (empty)
(PID.TID 0000.0001) 
(PID.TID 0000.0001) profiles file  20 is  (empty)
(PID.TID 0000.0001) 
(PID.TID 0000.0001) profiles file   1 is some_TS_atlas.sortedInTime
(PID.TID 0000.0001)   opening some_TS_atlas.sortedInTime.nc
(PID.TID 0000.0001)   file ID is           393216
(PID.TID 0000.0001)   no. of depth levels      50
(PID.TID 0000.0001)   no. of profiles        4420
(PID.TID 0000.0001)   within tile & run       192
(PID.TID 0000.0001)   incl. variables (T/F flags)    T    T    F    F    F    F
(PID.TID 0000.0001) 
(PID.TID 0000.0001) profiles file   2 is  (empty)
(PID.TID 0000.0001) 
(PID.TID 0000.0001) profiles file   3 is  (empty)
(PID.TID 0000.0001) 
(PID.TID 0000.0001) profiles file   4 is  (empty)
(PID.TID 0000.0001) 
(PID.TID 0000.0001) profiles file   5 is  (empty)
(PID.TID 0000.0001) 
(PID.TID 0000.0001) profiles file   6 is  (empty)
(PID.TID 0000.0001) 
(PID.TID 0000.0001) profiles file   7 is  (empty)
(PID.TID 0000.0001) 
(PID.TID 0000.0001) profiles file   8 is  (empty)
(PID.TID 0000.0001) 
(PID.TID 0000.0001) profiles file   9 is  (empty)
(PID.TID 0000.0001) 
(PID.TID 0000.0001) profiles file  10 is  (empty)
(PID.TID 0000.0001) 
(PID.TID 0000.0001) profiles file  11 is  (empty)
(PID.TID 0000.0001) 
(PID.TID 0000.0001) profiles file  12 is  (empty)
(PID.TID 0000.0001) 
(PID.TID 0000.0001) profiles file  13 is  (empty)
(PID.TID 0000.0001) 
(PID.TID 0000.0001) profiles file  14 is  (empty)
(PID.TID 0000.0001) 
(PID.TID 0000.0001) profiles file  15 is  (empty)
(PID.TID 0000.0001) 
(PID.TID 0000.0001) profiles file  16 is  (empty)
(PID.TID 0000.0001) 
(PID.TID 0000.0001) profiles file  17 is  (empty)
(PID.TID 0000.0001) 
(PID.TID 0000.0001) profiles file  18 is  (empty)
(PID.TID 0000.0001) 
(PID.TID 0000.0001) profiles file  19 is  (empty)
(PID.TID 0000.0001) 
(PID.TID 0000.0001) profiles file  20 is  (empty)
(PID.TID 0000.0001) 
(PID.TID 0000.0001) profiles file   1 is some_TS_atlas.sortedInTime
(PID.TID 0000.0001)   opening some_TS_atlas.sortedInTime.nc
(PID.TID 0000.0001)   file ID is           458752
(PID.TID 0000.0001)   no. of depth levels      50
(PID.TID 0000.0001)   no. of profiles        4420
(PID.TID 0000.0001)   within tile & run       108
(PID.TID 0000.0001)   incl. variables (T/F flags)    T    T    F    F    F    F
(PID.TID 0000.0001) 
(PID.TID 0000.0001) profiles file   2 is  (empty)
(PID.TID 0000.0001) 
(PID.TID 0000.0001) profiles file   3 is  (empty)
(PID.TID 0000.0001) 
(PID.TID 0000.0001) profiles file   4 is  (empty)
(PID.TID 0000.0001) 
(PID.TID 0000.0001) profiles file   5 is  (empty)
(PID.TID 0000.0001) 
(PID.TID 0000.0001) profiles file   6 is  (empty)
(PID.TID 0000.0001) 
(PID.TID 0000.0001) profiles file   7 is  (empty)
(PID.TID 0000.0001) 
(PID.TID 0000.0001) profiles file   8 is  (empty)
(PID.TID 0000.0001) 
(PID.TID 0000.0001) profiles file   9 is  (empty)
(PID.TID 0000.0001) 
(PID.TID 0000.0001) profiles file  10 is  (empty)
(PID.TID 0000.0001) 
(PID.TID 0000.0001) profiles file  11 is  (empty)
(PID.TID 0000.0001) 
(PID.TID 0000.0001) profiles file  12 is  (empty)
(PID.TID 0000.0001) 
(PID.TID 0000.0001) profiles file  13 is  (empty)
(PID.TID 0000.0001) 
(PID.TID 0000.0001) profiles file  14 is  (empty)
(PID.TID 0000.0001) 
(PID.TID 0000.0001) profiles file  15 is  (empty)
(PID.TID 0000.0001) 
(PID.TID 0000.0001) profiles file  16 is  (empty)
(PID.TID 0000.0001) 
(PID.TID 0000.0001) profiles file  17 is  (empty)
(PID.TID 0000.0001) 
(PID.TID 0000.0001) profiles file  18 is  (empty)
(PID.TID 0000.0001) 
(PID.TID 0000.0001) profiles file  19 is  (empty)
(PID.TID 0000.0001) 
(PID.TID 0000.0001) profiles file  20 is  (empty)
(PID.TID 0000.0001) 
(PID.TID 0000.0001) profiles file   1 is some_TS_atlas.sortedInTime
(PID.TID 0000.0001)   opening some_TS_atlas.sortedInTime.nc
(PID.TID 0000.0001)   file ID is           524288
(PID.TID 0000.0001)   no. of depth levels      50
(PID.TID 0000.0001)   no. of profiles        4420
(PID.TID 0000.0001)   within tile & run       146
(PID.TID 0000.0001)   incl. variables (T/F flags)    T    T    F    F    F    F
(PID.TID 0000.0001) 
(PID.TID 0000.0001) profiles file   2 is  (empty)
(PID.TID 0000.0001) 
(PID.TID 0000.0001) profiles file   3 is  (empty)
(PID.TID 0000.0001) 
(PID.TID 0000.0001) profiles file   4 is  (empty)
(PID.TID 0000.0001) 
(PID.TID 0000.0001) profiles file   5 is  (empty)
(PID.TID 0000.0001) 
(PID.TID 0000.0001) profiles file   6 is  (empty)
(PID.TID 0000.0001) 
(PID.TID 0000.0001) profiles file   7 is  (empty)
(PID.TID 0000.0001) 
(PID.TID 0000.0001) profiles file   8 is  (empty)
(PID.TID 0000.0001) 
(PID.TID 0000.0001) profiles file   9 is  (empty)
(PID.TID 0000.0001) 
(PID.TID 0000.0001) profiles file  10 is  (empty)
(PID.TID 0000.0001) 
(PID.TID 0000.0001) profiles file  11 is  (empty)
(PID.TID 0000.0001) 
(PID.TID 0000.0001) profiles file  12 is  (empty)
(PID.TID 0000.0001) 
(PID.TID 0000.0001) profiles file  13 is  (empty)
(PID.TID 0000.0001) 
(PID.TID 0000.0001) profiles file  14 is  (empty)
(PID.TID 0000.0001) 
(PID.TID 0000.0001) profiles file  15 is  (empty)
(PID.TID 0000.0001) 
(PID.TID 0000.0001) profiles file  16 is  (empty)
(PID.TID 0000.0001) 
(PID.TID 0000.0001) profiles file  17 is  (empty)
(PID.TID 0000.0001) 
(PID.TID 0000.0001) profiles file  18 is  (empty)
(PID.TID 0000.0001) 
(PID.TID 0000.0001) profiles file  19 is  (empty)
(PID.TID 0000.0001) 
(PID.TID 0000.0001) profiles file  20 is  (empty)
(PID.TID 0000.0001) 
(PID.TID 0000.0001) profiles file   1 is some_TS_atlas.sortedInTime
(PID.TID 0000.0001)   opening some_TS_atlas.sortedInTime.nc
(PID.TID 0000.0001)   file ID is           589824
(PID.TID 0000.0001)   no. of depth levels      50
(PID.TID 0000.0001)   no. of profiles        4420
(PID.TID 0000.0001)   within tile & run        55
(PID.TID 0000.0001)   incl. variables (T/F flags)    T    T    F    F    F    F
(PID.TID 0000.0001) 
(PID.TID 0000.0001) profiles file   2 is  (empty)
(PID.TID 0000.0001) 
(PID.TID 0000.0001) profiles file   3 is  (empty)
(PID.TID 0000.0001) 
(PID.TID 0000.0001) profiles file   4 is  (empty)
(PID.TID 0000.0001) 
(PID.TID 0000.0001) profiles file   5 is  (empty)
(PID.TID 0000.0001) 
(PID.TID 0000.0001) profiles file   6 is  (empty)
(PID.TID 0000.0001) 
(PID.TID 0000.0001) profiles file   7 is  (empty)
(PID.TID 0000.0001) 
(PID.TID 0000.0001) profiles file   8 is  (empty)
(PID.TID 0000.0001) 
(PID.TID 0000.0001) profiles file   9 is  (empty)
(PID.TID 0000.0001) 
(PID.TID 0000.0001) profiles file  10 is  (empty)
(PID.TID 0000.0001) 
(PID.TID 0000.0001) profiles file  11 is  (empty)
(PID.TID 0000.0001) 
(PID.TID 0000.0001) profiles file  12 is  (empty)
(PID.TID 0000.0001) 
(PID.TID 0000.0001) profiles file  13 is  (empty)
(PID.TID 0000.0001) 
(PID.TID 0000.0001) profiles file  14 is  (empty)
(PID.TID 0000.0001) 
(PID.TID 0000.0001) profiles file  15 is  (empty)
(PID.TID 0000.0001) 
(PID.TID 0000.0001) profiles file  16 is  (empty)
(PID.TID 0000.0001) 
(PID.TID 0000.0001) profiles file  17 is  (empty)
(PID.TID 0000.0001) 
(PID.TID 0000.0001) profiles file  18 is  (empty)
(PID.TID 0000.0001) 
(PID.TID 0000.0001) profiles file  19 is  (empty)
(PID.TID 0000.0001) 
(PID.TID 0000.0001) profiles file  20 is  (empty)
(PID.TID 0000.0001) 
(PID.TID 0000.0001) profiles file   1 is some_TS_atlas.sortedInTime
(PID.TID 0000.0001)   opening some_TS_atlas.sortedInTime.nc
(PID.TID 0000.0001)   file ID is           655360
(PID.TID 0000.0001)   no. of depth levels      50
(PID.TID 0000.0001)   no. of profiles        4420
(PID.TID 0000.0001)   within tile & run       111
(PID.TID 0000.0001)   incl. variables (T/F flags)    T    T    F    F    F    F
(PID.TID 0000.0001) 
(PID.TID 0000.0001) profiles file   2 is  (empty)
(PID.TID 0000.0001) 
(PID.TID 0000.0001) profiles file   3 is  (empty)
(PID.TID 0000.0001) 
(PID.TID 0000.0001) profiles file   4 is  (empty)
(PID.TID 0000.0001) 
(PID.TID 0000.0001) profiles file   5 is  (empty)
(PID.TID 0000.0001) 
(PID.TID 0000.0001) profiles file   6 is  (empty)
(PID.TID 0000.0001) 
(PID.TID 0000.0001) profiles file   7 is  (empty)
(PID.TID 0000.0001) 
(PID.TID 0000.0001) profiles file   8 is  (empty)
(PID.TID 0000.0001) 
(PID.TID 0000.0001) profiles file   9 is  (empty)
(PID.TID 0000.0001) 
(PID.TID 0000.0001) profiles file  10 is  (empty)
(PID.TID 0000.0001) 
(PID.TID 0000.0001) profiles file  11 is  (empty)
(PID.TID 0000.0001) 
(PID.TID 0000.0001) profiles file  12 is  (empty)
(PID.TID 0000.0001) 
(PID.TID 0000.0001) profiles file  13 is  (empty)
(PID.TID 0000.0001) 
(PID.TID 0000.0001) profiles file  14 is  (empty)
(PID.TID 0000.0001) 
(PID.TID 0000.0001) profiles file  15 is  (empty)
(PID.TID 0000.0001) 
(PID.TID 0000.0001) profiles file  16 is  (empty)
(PID.TID 0000.0001) 
(PID.TID 0000.0001) profiles file  17 is  (empty)
(PID.TID 0000.0001) 
(PID.TID 0000.0001) profiles file  18 is  (empty)
(PID.TID 0000.0001) 
(PID.TID 0000.0001) profiles file  19 is  (empty)
(PID.TID 0000.0001) 
(PID.TID 0000.0001) profiles file  20 is  (empty)
(PID.TID 0000.0001) 
(PID.TID 0000.0001) profiles file   1 is some_TS_atlas.sortedInTime
(PID.TID 0000.0001)   opening some_TS_atlas.sortedInTime.nc
(PID.TID 0000.0001)   file ID is           720896
(PID.TID 0000.0001)   no. of depth levels      50
(PID.TID 0000.0001)   no. of profiles        4420
(PID.TID 0000.0001)   within tile & run       185
(PID.TID 0000.0001)   incl. variables (T/F flags)    T    T    F    F    F    F
(PID.TID 0000.0001) 
(PID.TID 0000.0001) profiles file   2 is  (empty)
(PID.TID 0000.0001) 
(PID.TID 0000.0001) profiles file   3 is  (empty)
(PID.TID 0000.0001) 
(PID.TID 0000.0001) profiles file   4 is  (empty)
(PID.TID 0000.0001) 
(PID.TID 0000.0001) profiles file   5 is  (empty)
(PID.TID 0000.0001) 
(PID.TID 0000.0001) profiles file   6 is  (empty)
(PID.TID 0000.0001) 
(PID.TID 0000.0001) profiles file   7 is  (empty)
(PID.TID 0000.0001) 
(PID.TID 0000.0001) profiles file   8 is  (empty)
(PID.TID 0000.0001) 
(PID.TID 0000.0001) profiles file   9 is  (empty)
(PID.TID 0000.0001) 
(PID.TID 0000.0001) profiles file  10 is  (empty)
(PID.TID 0000.0001) 
(PID.TID 0000.0001) profiles file  11 is  (empty)
(PID.TID 0000.0001) 
(PID.TID 0000.0001) profiles file  12 is  (empty)
(PID.TID 0000.0001) 
(PID.TID 0000.0001) profiles file  13 is  (empty)
(PID.TID 0000.0001) 
(PID.TID 0000.0001) profiles file  14 is  (empty)
(PID.TID 0000.0001) 
(PID.TID 0000.0001) profiles file  15 is  (empty)
(PID.TID 0000.0001) 
(PID.TID 0000.0001) profiles file  16 is  (empty)
(PID.TID 0000.0001) 
(PID.TID 0000.0001) profiles file  17 is  (empty)
(PID.TID 0000.0001) 
(PID.TID 0000.0001) profiles file  18 is  (empty)
(PID.TID 0000.0001) 
(PID.TID 0000.0001) profiles file  19 is  (empty)
(PID.TID 0000.0001) 
(PID.TID 0000.0001) profiles file  20 is  (empty)
(PID.TID 0000.0001) 
(PID.TID 0000.0001) profiles file   1 is some_TS_atlas.sortedInTime
(PID.TID 0000.0001)   opening some_TS_atlas.sortedInTime.nc
(PID.TID 0000.0001)   file ID is           786432
(PID.TID 0000.0001)   no. of depth levels      50
(PID.TID 0000.0001)   no. of profiles        4420
(PID.TID 0000.0001)   within tile & run       152
(PID.TID 0000.0001)   incl. variables (T/F flags)    T    T    F    F    F    F
(PID.TID 0000.0001) 
(PID.TID 0000.0001) profiles file   2 is  (empty)
(PID.TID 0000.0001) 
(PID.TID 0000.0001) profiles file   3 is  (empty)
(PID.TID 0000.0001) 
(PID.TID 0000.0001) profiles file   4 is  (empty)
(PID.TID 0000.0001) 
(PID.TID 0000.0001) profiles file   5 is  (empty)
(PID.TID 0000.0001) 
(PID.TID 0000.0001) profiles file   6 is  (empty)
(PID.TID 0000.0001) 
(PID.TID 0000.0001) profiles file   7 is  (empty)
(PID.TID 0000.0001) 
(PID.TID 0000.0001) profiles file   8 is  (empty)
(PID.TID 0000.0001) 
(PID.TID 0000.0001) profiles file   9 is  (empty)
(PID.TID 0000.0001) 
(PID.TID 0000.0001) profiles file  10 is  (empty)
(PID.TID 0000.0001) 
(PID.TID 0000.0001) profiles file  11 is  (empty)
(PID.TID 0000.0001) 
(PID.TID 0000.0001) profiles file  12 is  (empty)
(PID.TID 0000.0001) 
(PID.TID 0000.0001) profiles file  13 is  (empty)
(PID.TID 0000.0001) 
(PID.TID 0000.0001) profiles file  14 is  (empty)
(PID.TID 0000.0001) 
(PID.TID 0000.0001) profiles file  15 is  (empty)
(PID.TID 0000.0001) 
(PID.TID 0000.0001) profiles file  16 is  (empty)
(PID.TID 0000.0001) 
(PID.TID 0000.0001) profiles file  17 is  (empty)
(PID.TID 0000.0001) 
(PID.TID 0000.0001) profiles file  18 is  (empty)
(PID.TID 0000.0001) 
(PID.TID 0000.0001) profiles file  19 is  (empty)
(PID.TID 0000.0001) 
(PID.TID 0000.0001) profiles file  20 is  (empty)
(PID.TID 0000.0001) 
(PID.TID 0000.0001) profiles file   1 is some_TS_atlas.sortedInTime
(PID.TID 0000.0001)   opening some_TS_atlas.sortedInTime.nc
(PID.TID 0000.0001)   file ID is           851968
(PID.TID 0000.0001)   no. of depth levels      50
(PID.TID 0000.0001)   no. of profiles        4420
(PID.TID 0000.0001)   within tile & run       253
(PID.TID 0000.0001)   incl. variables (T/F flags)    T    T    F    F    F    F
(PID.TID 0000.0001) 
(PID.TID 0000.0001) profiles file   2 is  (empty)
(PID.TID 0000.0001) 
(PID.TID 0000.0001) profiles file   3 is  (empty)
(PID.TID 0000.0001) 
(PID.TID 0000.0001) profiles file   4 is  (empty)
(PID.TID 0000.0001) 
(PID.TID 0000.0001) profiles file   5 is  (empty)
(PID.TID 0000.0001) 
(PID.TID 0000.0001) profiles file   6 is  (empty)
(PID.TID 0000.0001) 
(PID.TID 0000.0001) profiles file   7 is  (empty)
(PID.TID 0000.0001) 
(PID.TID 0000.0001) profiles file   8 is  (empty)
(PID.TID 0000.0001) 
(PID.TID 0000.0001) profiles file   9 is  (empty)
(PID.TID 0000.0001) 
(PID.TID 0000.0001) profiles file  10 is  (empty)
(PID.TID 0000.0001) 
(PID.TID 0000.0001) profiles file  11 is  (empty)
(PID.TID 0000.0001) 
(PID.TID 0000.0001) profiles file  12 is  (empty)
(PID.TID 0000.0001) 
(PID.TID 0000.0001) profiles file  13 is  (empty)
(PID.TID 0000.0001) 
(PID.TID 0000.0001) profiles file  14 is  (empty)
(PID.TID 0000.0001) 
(PID.TID 0000.0001) profiles file  15 is  (empty)
(PID.TID 0000.0001) 
(PID.TID 0000.0001) profiles file  16 is  (empty)
(PID.TID 0000.0001) 
(PID.TID 0000.0001) profiles file  17 is  (empty)
(PID.TID 0000.0001) 
(PID.TID 0000.0001) profiles file  18 is  (empty)
(PID.TID 0000.0001) 
(PID.TID 0000.0001) profiles file  19 is  (empty)
(PID.TID 0000.0001) 
(PID.TID 0000.0001) profiles file  20 is  (empty)
(PID.TID 0000.0001) 
(PID.TID 0000.0001) profiles file   1 is some_TS_atlas.sortedInTime
(PID.TID 0000.0001)   opening some_TS_atlas.sortedInTime.nc
(PID.TID 0000.0001)   file ID is           917504
(PID.TID 0000.0001)   no. of depth levels      50
(PID.TID 0000.0001)   no. of profiles        4420
(PID.TID 0000.0001)   within tile & run       187
(PID.TID 0000.0001)   incl. variables (T/F flags)    T    T    F    F    F    F
(PID.TID 0000.0001) 
(PID.TID 0000.0001) profiles file   2 is  (empty)
(PID.TID 0000.0001) 
(PID.TID 0000.0001) profiles file   3 is  (empty)
(PID.TID 0000.0001) 
(PID.TID 0000.0001) profiles file   4 is  (empty)
(PID.TID 0000.0001) 
(PID.TID 0000.0001) profiles file   5 is  (empty)
(PID.TID 0000.0001) 
(PID.TID 0000.0001) profiles file   6 is  (empty)
(PID.TID 0000.0001) 
(PID.TID 0000.0001) profiles file   7 is  (empty)
(PID.TID 0000.0001) 
(PID.TID 0000.0001) profiles file   8 is  (empty)
(PID.TID 0000.0001) 
(PID.TID 0000.0001) profiles file   9 is  (empty)
(PID.TID 0000.0001) 
(PID.TID 0000.0001) profiles file  10 is  (empty)
(PID.TID 0000.0001) 
(PID.TID 0000.0001) profiles file  11 is  (empty)
(PID.TID 0000.0001) 
(PID.TID 0000.0001) profiles file  12 is  (empty)
(PID.TID 0000.0001) 
(PID.TID 0000.0001) profiles file  13 is  (empty)
(PID.TID 0000.0001) 
(PID.TID 0000.0001) profiles file  14 is  (empty)
(PID.TID 0000.0001) 
(PID.TID 0000.0001) profiles file  15 is  (empty)
(PID.TID 0000.0001) 
(PID.TID 0000.0001) profiles file  16 is  (empty)
(PID.TID 0000.0001) 
(PID.TID 0000.0001) profiles file  17 is  (empty)
(PID.TID 0000.0001) 
(PID.TID 0000.0001) profiles file  18 is  (empty)
(PID.TID 0000.0001) 
(PID.TID 0000.0001) profiles file  19 is  (empty)
(PID.TID 0000.0001) 
(PID.TID 0000.0001) profiles file  20 is  (empty)
(PID.TID 0000.0001) 
(PID.TID 0000.0001) profiles file   1 is some_TS_atlas.sortedInTime
(PID.TID 0000.0001)   opening some_TS_atlas.sortedInTime.nc
(PID.TID 0000.0001)   file ID is           983040
(PID.TID 0000.0001)   no. of depth levels      50
(PID.TID 0000.0001)   no. of profiles        4420
(PID.TID 0000.0001)   within tile & run       256
(PID.TID 0000.0001)   incl. variables (T/F flags)    T    T    F    F    F    F
(PID.TID 0000.0001) 
(PID.TID 0000.0001) profiles file   2 is  (empty)
(PID.TID 0000.0001) 
(PID.TID 0000.0001) profiles file   3 is  (empty)
(PID.TID 0000.0001) 
(PID.TID 0000.0001) profiles file   4 is  (empty)
(PID.TID 0000.0001) 
(PID.TID 0000.0001) profiles file   5 is  (empty)
(PID.TID 0000.0001) 
(PID.TID 0000.0001) profiles file   6 is  (empty)
(PID.TID 0000.0001) 
(PID.TID 0000.0001) profiles file   7 is  (empty)
(PID.TID 0000.0001) 
(PID.TID 0000.0001) profiles file   8 is  (empty)
(PID.TID 0000.0001) 
(PID.TID 0000.0001) profiles file   9 is  (empty)
(PID.TID 0000.0001) 
(PID.TID 0000.0001) profiles file  10 is  (empty)
(PID.TID 0000.0001) 
(PID.TID 0000.0001) profiles file  11 is  (empty)
(PID.TID 0000.0001) 
(PID.TID 0000.0001) profiles file  12 is  (empty)
(PID.TID 0000.0001) 
(PID.TID 0000.0001) profiles file  13 is  (empty)
(PID.TID 0000.0001) 
(PID.TID 0000.0001) profiles file  14 is  (empty)
(PID.TID 0000.0001) 
(PID.TID 0000.0001) profiles file  15 is  (empty)
(PID.TID 0000.0001) 
(PID.TID 0000.0001) profiles file  16 is  (empty)
(PID.TID 0000.0001) 
(PID.TID 0000.0001) profiles file  17 is  (empty)
(PID.TID 0000.0001) 
(PID.TID 0000.0001) profiles file  18 is  (empty)
(PID.TID 0000.0001) 
(PID.TID 0000.0001) profiles file  19 is  (empty)
(PID.TID 0000.0001) 
(PID.TID 0000.0001) profiles file  20 is  (empty)
(PID.TID 0000.0001) 
(PID.TID 0000.0001) profiles file   1 is some_TS_atlas.sortedInTime
(PID.TID 0000.0001)   opening some_TS_atlas.sortedInTime.nc
(PID.TID 0000.0001)   file ID is          1048576
(PID.TID 0000.0001)   no. of depth levels      50
(PID.TID 0000.0001)   no. of profiles        4420
(PID.TID 0000.0001)   within tile & run       257
(PID.TID 0000.0001)   incl. variables (T/F flags)    T    T    F    F    F    F
(PID.TID 0000.0001) 
(PID.TID 0000.0001) profiles file   2 is  (empty)
(PID.TID 0000.0001) 
(PID.TID 0000.0001) profiles file   3 is  (empty)
(PID.TID 0000.0001) 
(PID.TID 0000.0001) profiles file   4 is  (empty)
(PID.TID 0000.0001) 
(PID.TID 0000.0001) profiles file   5 is  (empty)
(PID.TID 0000.0001) 
(PID.TID 0000.0001) profiles file   6 is  (empty)
(PID.TID 0000.0001) 
(PID.TID 0000.0001) profiles file   7 is  (empty)
(PID.TID 0000.0001) 
(PID.TID 0000.0001) profiles file   8 is  (empty)
(PID.TID 0000.0001) 
(PID.TID 0000.0001) profiles file   9 is  (empty)
(PID.TID 0000.0001) 
(PID.TID 0000.0001) profiles file  10 is  (empty)
(PID.TID 0000.0001) 
(PID.TID 0000.0001) profiles file  11 is  (empty)
(PID.TID 0000.0001) 
(PID.TID 0000.0001) profiles file  12 is  (empty)
(PID.TID 0000.0001) 
(PID.TID 0000.0001) profiles file  13 is  (empty)
(PID.TID 0000.0001) 
(PID.TID 0000.0001) profiles file  14 is  (empty)
(PID.TID 0000.0001) 
(PID.TID 0000.0001) profiles file  15 is  (empty)
(PID.TID 0000.0001) 
(PID.TID 0000.0001) profiles file  16 is  (empty)
(PID.TID 0000.0001) 
(PID.TID 0000.0001) profiles file  17 is  (empty)
(PID.TID 0000.0001) 
(PID.TID 0000.0001) profiles file  18 is  (empty)
(PID.TID 0000.0001) 
(PID.TID 0000.0001) profiles file  19 is  (empty)
(PID.TID 0000.0001) 
(PID.TID 0000.0001) profiles file  20 is  (empty)
(PID.TID 0000.0001) 
(PID.TID 0000.0001) profiles file   1 is some_TS_atlas.sortedInTime
(PID.TID 0000.0001)   opening some_TS_atlas.sortedInTime.nc
(PID.TID 0000.0001)   file ID is          1114112
(PID.TID 0000.0001)   no. of depth levels      50
(PID.TID 0000.0001)   no. of profiles        4420
(PID.TID 0000.0001)   within tile & run       188
(PID.TID 0000.0001)   incl. variables (T/F flags)    T    T    F    F    F    F
(PID.TID 0000.0001) 
(PID.TID 0000.0001) profiles file   2 is  (empty)
(PID.TID 0000.0001) 
(PID.TID 0000.0001) profiles file   3 is  (empty)
(PID.TID 0000.0001) 
(PID.TID 0000.0001) profiles file   4 is  (empty)
(PID.TID 0000.0001) 
(PID.TID 0000.0001) profiles file   5 is  (empty)
(PID.TID 0000.0001) 
(PID.TID 0000.0001) profiles file   6 is  (empty)
(PID.TID 0000.0001) 
(PID.TID 0000.0001) profiles file   7 is  (empty)
(PID.TID 0000.0001) 
(PID.TID 0000.0001) profiles file   8 is  (empty)
(PID.TID 0000.0001) 
(PID.TID 0000.0001) profiles file   9 is  (empty)
(PID.TID 0000.0001) 
(PID.TID 0000.0001) profiles file  10 is  (empty)
(PID.TID 0000.0001) 
(PID.TID 0000.0001) profiles file  11 is  (empty)
(PID.TID 0000.0001) 
(PID.TID 0000.0001) profiles file  12 is  (empty)
(PID.TID 0000.0001) 
(PID.TID 0000.0001) profiles file  13 is  (empty)
(PID.TID 0000.0001) 
(PID.TID 0000.0001) profiles file  14 is  (empty)
(PID.TID 0000.0001) 
(PID.TID 0000.0001) profiles file  15 is  (empty)
(PID.TID 0000.0001) 
(PID.TID 0000.0001) profiles file  16 is  (empty)
(PID.TID 0000.0001) 
(PID.TID 0000.0001) profiles file  17 is  (empty)
(PID.TID 0000.0001) 
(PID.TID 0000.0001) profiles file  18 is  (empty)
(PID.TID 0000.0001) 
(PID.TID 0000.0001) profiles file  19 is  (empty)
(PID.TID 0000.0001) 
(PID.TID 0000.0001) profiles file  20 is  (empty)
(PID.TID 0000.0001) 
(PID.TID 0000.0001) profiles file   1 is some_TS_atlas.sortedInTime
(PID.TID 0000.0001)   opening some_TS_atlas.sortedInTime.nc
(PID.TID 0000.0001)   file ID is          1179648
(PID.TID 0000.0001)   no. of depth levels      50
(PID.TID 0000.0001)   no. of profiles        4420
(PID.TID 0000.0001)   within tile & run       256
(PID.TID 0000.0001)   incl. variables (T/F flags)    T    T    F    F    F    F
(PID.TID 0000.0001) 
(PID.TID 0000.0001) profiles file   2 is  (empty)
(PID.TID 0000.0001) 
(PID.TID 0000.0001) profiles file   3 is  (empty)
(PID.TID 0000.0001) 
(PID.TID 0000.0001) profiles file   4 is  (empty)
(PID.TID 0000.0001) 
(PID.TID 0000.0001) profiles file   5 is  (empty)
(PID.TID 0000.0001) 
(PID.TID 0000.0001) profiles file   6 is  (empty)
(PID.TID 0000.0001) 
(PID.TID 0000.0001) profiles file   7 is  (empty)
(PID.TID 0000.0001) 
(PID.TID 0000.0001) profiles file   8 is  (empty)
(PID.TID 0000.0001) 
(PID.TID 0000.0001) profiles file   9 is  (empty)
(PID.TID 0000.0001) 
(PID.TID 0000.0001) profiles file  10 is  (empty)
(PID.TID 0000.0001) 
(PID.TID 0000.0001) profiles file  11 is  (empty)
(PID.TID 0000.0001) 
(PID.TID 0000.0001) profiles file  12 is  (empty)
(PID.TID 0000.0001) 
(PID.TID 0000.0001) profiles file  13 is  (empty)
(PID.TID 0000.0001) 
(PID.TID 0000.0001) profiles file  14 is  (empty)
(PID.TID 0000.0001) 
(PID.TID 0000.0001) profiles file  15 is  (empty)
(PID.TID 0000.0001) 
(PID.TID 0000.0001) profiles file  16 is  (empty)
(PID.TID 0000.0001) 
(PID.TID 0000.0001) profiles file  17 is  (empty)
(PID.TID 0000.0001) 
(PID.TID 0000.0001) profiles file  18 is  (empty)
(PID.TID 0000.0001) 
(PID.TID 0000.0001) profiles file  19 is  (empty)
(PID.TID 0000.0001) 
(PID.TID 0000.0001) profiles file  20 is  (empty)
(PID.TID 0000.0001) 
(PID.TID 0000.0001) profiles file   1 is some_TS_atlas.sortedInTime
(PID.TID 0000.0001)   opening some_TS_atlas.sortedInTime.nc
(PID.TID 0000.0001)   file ID is          1245184
(PID.TID 0000.0001)   no. of depth levels      50
(PID.TID 0000.0001)   no. of profiles        4420
(PID.TID 0000.0001)   within tile & run       194
(PID.TID 0000.0001)   incl. variables (T/F flags)    T    T    F    F    F    F
(PID.TID 0000.0001) 
(PID.TID 0000.0001) profiles file   2 is  (empty)
(PID.TID 0000.0001) 
(PID.TID 0000.0001) profiles file   3 is  (empty)
(PID.TID 0000.0001) 
(PID.TID 0000.0001) profiles file   4 is  (empty)
(PID.TID 0000.0001) 
(PID.TID 0000.0001) profiles file   5 is  (empty)
(PID.TID 0000.0001) 
(PID.TID 0000.0001) profiles file   6 is  (empty)
(PID.TID 0000.0001) 
(PID.TID 0000.0001) profiles file   7 is  (empty)
(PID.TID 0000.0001) 
(PID.TID 0000.0001) profiles file   8 is  (empty)
(PID.TID 0000.0001) 
(PID.TID 0000.0001) profiles file   9 is  (empty)
(PID.TID 0000.0001) 
(PID.TID 0000.0001) profiles file  10 is  (empty)
(PID.TID 0000.0001) 
(PID.TID 0000.0001) profiles file  11 is  (empty)
(PID.TID 0000.0001) 
(PID.TID 0000.0001) profiles file  12 is  (empty)
(PID.TID 0000.0001) 
(PID.TID 0000.0001) profiles file  13 is  (empty)
(PID.TID 0000.0001) 
(PID.TID 0000.0001) profiles file  14 is  (empty)
(PID.TID 0000.0001) 
(PID.TID 0000.0001) profiles file  15 is  (empty)
(PID.TID 0000.0001) 
(PID.TID 0000.0001) profiles file  16 is  (empty)
(PID.TID 0000.0001) 
(PID.TID 0000.0001) profiles file  17 is  (empty)
(PID.TID 0000.0001) 
(PID.TID 0000.0001) profiles file  18 is  (empty)
(PID.TID 0000.0001) 
(PID.TID 0000.0001) profiles file  19 is  (empty)
(PID.TID 0000.0001) 
(PID.TID 0000.0001) profiles file  20 is  (empty)
(PID.TID 0000.0001) 
(PID.TID 0000.0001) profiles file   1 is some_TS_atlas.sortedInTime
(PID.TID 0000.0001)   opening some_TS_atlas.sortedInTime.nc
(PID.TID 0000.0001)   file ID is          1310720
(PID.TID 0000.0001)   no. of depth levels      50
(PID.TID 0000.0001)   no. of profiles        4420
(PID.TID 0000.0001)   within tile & run       106
(PID.TID 0000.0001)   incl. variables (T/F flags)    T    T    F    F    F    F
(PID.TID 0000.0001) 
(PID.TID 0000.0001) profiles file   2 is  (empty)
(PID.TID 0000.0001) 
(PID.TID 0000.0001) profiles file   3 is  (empty)
(PID.TID 0000.0001) 
(PID.TID 0000.0001) profiles file   4 is  (empty)
(PID.TID 0000.0001) 
(PID.TID 0000.0001) profiles file   5 is  (empty)
(PID.TID 0000.0001) 
(PID.TID 0000.0001) profiles file   6 is  (empty)
(PID.TID 0000.0001) 
(PID.TID 0000.0001) profiles file   7 is  (empty)
(PID.TID 0000.0001) 
(PID.TID 0000.0001) profiles file   8 is  (empty)
(PID.TID 0000.0001) 
(PID.TID 0000.0001) profiles file   9 is  (empty)
(PID.TID 0000.0001) 
(PID.TID 0000.0001) profiles file  10 is  (empty)
(PID.TID 0000.0001) 
(PID.TID 0000.0001) profiles file  11 is  (empty)
(PID.TID 0000.0001) 
(PID.TID 0000.0001) profiles file  12 is  (empty)
(PID.TID 0000.0001) 
(PID.TID 0000.0001) profiles file  13 is  (empty)
(PID.TID 0000.0001) 
(PID.TID 0000.0001) profiles file  14 is  (empty)
(PID.TID 0000.0001) 
(PID.TID 0000.0001) profiles file  15 is  (empty)
(PID.TID 0000.0001) 
(PID.TID 0000.0001) profiles file  16 is  (empty)
(PID.TID 0000.0001) 
(PID.TID 0000.0001) profiles file  17 is  (empty)
(PID.TID 0000.0001) 
(PID.TID 0000.0001) profiles file  18 is  (empty)
(PID.TID 0000.0001) 
(PID.TID 0000.0001) profiles file  19 is  (empty)
(PID.TID 0000.0001) 
(PID.TID 0000.0001) profiles file  20 is  (empty)
(PID.TID 0000.0001) 
(PID.TID 0000.0001) profiles file   1 is some_TS_atlas.sortedInTime
(PID.TID 0000.0001)   opening some_TS_atlas.sortedInTime.nc
(PID.TID 0000.0001)   file ID is          1376256
(PID.TID 0000.0001)   no. of depth levels      50
(PID.TID 0000.0001)   no. of profiles        4420
(PID.TID 0000.0001)   within tile & run       235
(PID.TID 0000.0001)   incl. variables (T/F flags)    T    T    F    F    F    F
(PID.TID 0000.0001) 
(PID.TID 0000.0001) profiles file   2 is  (empty)
(PID.TID 0000.0001) 
(PID.TID 0000.0001) profiles file   3 is  (empty)
(PID.TID 0000.0001) 
(PID.TID 0000.0001) profiles file   4 is  (empty)
(PID.TID 0000.0001) 
(PID.TID 0000.0001) profiles file   5 is  (empty)
(PID.TID 0000.0001) 
(PID.TID 0000.0001) profiles file   6 is  (empty)
(PID.TID 0000.0001) 
(PID.TID 0000.0001) profiles file   7 is  (empty)
(PID.TID 0000.0001) 
(PID.TID 0000.0001) profiles file   8 is  (empty)
(PID.TID 0000.0001) 
(PID.TID 0000.0001) profiles file   9 is  (empty)
(PID.TID 0000.0001) 
(PID.TID 0000.0001) profiles file  10 is  (empty)
(PID.TID 0000.0001) 
(PID.TID 0000.0001) profiles file  11 is  (empty)
(PID.TID 0000.0001) 
(PID.TID 0000.0001) profiles file  12 is  (empty)
(PID.TID 0000.0001) 
(PID.TID 0000.0001) profiles file  13 is  (empty)
(PID.TID 0000.0001) 
(PID.TID 0000.0001) profiles file  14 is  (empty)
(PID.TID 0000.0001) 
(PID.TID 0000.0001) profiles file  15 is  (empty)
(PID.TID 0000.0001) 
(PID.TID 0000.0001) profiles file  16 is  (empty)
(PID.TID 0000.0001) 
(PID.TID 0000.0001) profiles file  17 is  (empty)
(PID.TID 0000.0001) 
(PID.TID 0000.0001) profiles file  18 is  (empty)
(PID.TID 0000.0001) 
(PID.TID 0000.0001) profiles file  19 is  (empty)
(PID.TID 0000.0001) 
(PID.TID 0000.0001) profiles file  20 is  (empty)
(PID.TID 0000.0001) 
(PID.TID 0000.0001) profiles file   1 is some_TS_atlas.sortedInTime
(PID.TID 0000.0001)   opening some_TS_atlas.sortedInTime.nc
(PID.TID 0000.0001)   file ID is          1441792
(PID.TID 0000.0001)   no. of depth levels      50
(PID.TID 0000.0001)   no. of profiles        4420
(PID.TID 0000.0001)   within tile & run       212
(PID.TID 0000.0001)   incl. variables (T/F flags)    T    T    F    F    F    F
(PID.TID 0000.0001) 
(PID.TID 0000.0001) profiles file   2 is  (empty)
(PID.TID 0000.0001) 
(PID.TID 0000.0001) profiles file   3 is  (empty)
(PID.TID 0000.0001) 
(PID.TID 0000.0001) profiles file   4 is  (empty)
(PID.TID 0000.0001) 
(PID.TID 0000.0001) profiles file   5 is  (empty)
(PID.TID 0000.0001) 
(PID.TID 0000.0001) profiles file   6 is  (empty)
(PID.TID 0000.0001) 
(PID.TID 0000.0001) profiles file   7 is  (empty)
(PID.TID 0000.0001) 
(PID.TID 0000.0001) profiles file   8 is  (empty)
(PID.TID 0000.0001) 
(PID.TID 0000.0001) profiles file   9 is  (empty)
(PID.TID 0000.0001) 
(PID.TID 0000.0001) profiles file  10 is  (empty)
(PID.TID 0000.0001) 
(PID.TID 0000.0001) profiles file  11 is  (empty)
(PID.TID 0000.0001) 
(PID.TID 0000.0001) profiles file  12 is  (empty)
(PID.TID 0000.0001) 
(PID.TID 0000.0001) profiles file  13 is  (empty)
(PID.TID 0000.0001) 
(PID.TID 0000.0001) profiles file  14 is  (empty)
(PID.TID 0000.0001) 
(PID.TID 0000.0001) profiles file  15 is  (empty)
(PID.TID 0000.0001) 
(PID.TID 0000.0001) profiles file  16 is  (empty)
(PID.TID 0000.0001) 
(PID.TID 0000.0001) profiles file  17 is  (empty)
(PID.TID 0000.0001) 
(PID.TID 0000.0001) profiles file  18 is  (empty)
(PID.TID 0000.0001) 
(PID.TID 0000.0001) profiles file  19 is  (empty)
(PID.TID 0000.0001) 
(PID.TID 0000.0001) profiles file  20 is  (empty)
(PID.TID 0000.0001) 
(PID.TID 0000.0001) profiles file   1 is some_TS_atlas.sortedInTime
(PID.TID 0000.0001)   opening some_TS_atlas.sortedInTime.nc
(PID.TID 0000.0001)   file ID is          1507328
(PID.TID 0000.0001)   no. of depth levels      50
(PID.TID 0000.0001)   no. of profiles        4420
(PID.TID 0000.0001)   within tile & run       225
(PID.TID 0000.0001)   incl. variables (T/F flags)    T    T    F    F    F    F
(PID.TID 0000.0001) 
(PID.TID 0000.0001) profiles file   2 is  (empty)
(PID.TID 0000.0001) 
(PID.TID 0000.0001) profiles file   3 is  (empty)
(PID.TID 0000.0001) 
(PID.TID 0000.0001) profiles file   4 is  (empty)
(PID.TID 0000.0001) 
(PID.TID 0000.0001) profiles file   5 is  (empty)
(PID.TID 0000.0001) 
(PID.TID 0000.0001) profiles file   6 is  (empty)
(PID.TID 0000.0001) 
(PID.TID 0000.0001) profiles file   7 is  (empty)
(PID.TID 0000.0001) 
(PID.TID 0000.0001) profiles file   8 is  (empty)
(PID.TID 0000.0001) 
(PID.TID 0000.0001) profiles file   9 is  (empty)
(PID.TID 0000.0001) 
(PID.TID 0000.0001) profiles file  10 is  (empty)
(PID.TID 0000.0001) 
(PID.TID 0000.0001) profiles file  11 is  (empty)
(PID.TID 0000.0001) 
(PID.TID 0000.0001) profiles file  12 is  (empty)
(PID.TID 0000.0001) 
(PID.TID 0000.0001) profiles file  13 is  (empty)
(PID.TID 0000.0001) 
(PID.TID 0000.0001) profiles file  14 is  (empty)
(PID.TID 0000.0001) 
(PID.TID 0000.0001) profiles file  15 is  (empty)
(PID.TID 0000.0001) 
(PID.TID 0000.0001) profiles file  16 is  (empty)
(PID.TID 0000.0001) 
(PID.TID 0000.0001) profiles file  17 is  (empty)
(PID.TID 0000.0001) 
(PID.TID 0000.0001) profiles file  18 is  (empty)
(PID.TID 0000.0001) 
(PID.TID 0000.0001) profiles file  19 is  (empty)
(PID.TID 0000.0001) 
(PID.TID 0000.0001) profiles file  20 is  (empty)
(PID.TID 0000.0001) 
(PID.TID 0000.0001) profiles file   1 is some_TS_atlas.sortedInTime
(PID.TID 0000.0001)   opening some_TS_atlas.sortedInTime.nc
(PID.TID 0000.0001)   file ID is          1572864
(PID.TID 0000.0001)   no. of depth levels      50
(PID.TID 0000.0001)   no. of profiles        4420
(PID.TID 0000.0001)   within tile & run       213
(PID.TID 0000.0001)   incl. variables (T/F flags)    T    T    F    F    F    F
(PID.TID 0000.0001) 
(PID.TID 0000.0001) profiles file   2 is  (empty)
(PID.TID 0000.0001) 
(PID.TID 0000.0001) profiles file   3 is  (empty)
(PID.TID 0000.0001) 
(PID.TID 0000.0001) profiles file   4 is  (empty)
(PID.TID 0000.0001) 
(PID.TID 0000.0001) profiles file   5 is  (empty)
(PID.TID 0000.0001) 
(PID.TID 0000.0001) profiles file   6 is  (empty)
(PID.TID 0000.0001) 
(PID.TID 0000.0001) profiles file   7 is  (empty)
(PID.TID 0000.0001) 
(PID.TID 0000.0001) profiles file   8 is  (empty)
(PID.TID 0000.0001) 
(PID.TID 0000.0001) profiles file   9 is  (empty)
(PID.TID 0000.0001) 
(PID.TID 0000.0001) profiles file  10 is  (empty)
(PID.TID 0000.0001) 
(PID.TID 0000.0001) profiles file  11 is  (empty)
(PID.TID 0000.0001) 
(PID.TID 0000.0001) profiles file  12 is  (empty)
(PID.TID 0000.0001) 
(PID.TID 0000.0001) profiles file  13 is  (empty)
(PID.TID 0000.0001) 
(PID.TID 0000.0001) profiles file  14 is  (empty)
(PID.TID 0000.0001) 
(PID.TID 0000.0001) profiles file  15 is  (empty)
(PID.TID 0000.0001) 
(PID.TID 0000.0001) profiles file  16 is  (empty)
(PID.TID 0000.0001) 
(PID.TID 0000.0001) profiles file  17 is  (empty)
(PID.TID 0000.0001) 
(PID.TID 0000.0001) profiles file  18 is  (empty)
(PID.TID 0000.0001) 
(PID.TID 0000.0001) profiles file  19 is  (empty)
(PID.TID 0000.0001) 
(PID.TID 0000.0001) profiles file  20 is  (empty)
(PID.TID 0000.0001) 
(PID.TID 0000.0001) // =======================================================
(PID.TID 0000.0001) // insitu profiles model sampling >>> END <<<
(PID.TID 0000.0001) // =======================================================
(PID.TID 0000.0001) 
(PID.TID 0000.0001) ctrl-wet 1:    nvarlength =       990810
(PID.TID 0000.0001) ctrl-wet 2: surface wet C =          237
(PID.TID 0000.0001) ctrl-wet 3: surface wet W =          228
(PID.TID 0000.0001) ctrl-wet 4: surface wet S =          233
(PID.TID 0000.0001) ctrl-wet 4a:surface wet V =            0
(PID.TID 0000.0001) ctrl-wet 5: 3D wet points =        10699
(PID.TID 0000.0001) ctrl-wet 6: no recs for i =     1           1
(PID.TID 0000.0001) ctrl-wet 6: no recs for i =     2           1
(PID.TID 0000.0001) ctrl-wet 6: no recs for i =     3           0
(PID.TID 0000.0001) ctrl-wet 6: no recs for i =     4           0
(PID.TID 0000.0001) ctrl-wet 6: no recs for i =     5           0
(PID.TID 0000.0001) ctrl-wet 6: no recs for i =     6           0
(PID.TID 0000.0001) ctrl-wet 6: no recs for i =     7           2
(PID.TID 0000.0001) ctrl-wet 6: no recs for i =     8           2
(PID.TID 0000.0001) ctrl-wet 6: no recs for i =     9           2
(PID.TID 0000.0001) ctrl-wet 6: no recs for i =    10           2
(PID.TID 0000.0001) ctrl-wet 6: no recs for i =    11           0
(PID.TID 0000.0001) ctrl-wet 6: no recs for i =    12           0
(PID.TID 0000.0001) ctrl-wet 6: no recs for i =    13           0
(PID.TID 0000.0001) ctrl-wet 6: no recs for i =    14           0
(PID.TID 0000.0001) ctrl-wet 6: no recs for i =    15           1
(PID.TID 0000.0001) ctrl-wet 6: no recs for i =    16           1
(PID.TID 0000.0001) ctrl-wet 6: no recs for i =    17           0
(PID.TID 0000.0001) ctrl-wet 6: no recs for i =    18           0
(PID.TID 0000.0001) ctrl-wet 6: no recs for i =    19           0
(PID.TID 0000.0001) ctrl-wet 6: no recs for i =    20           0
(PID.TID 0000.0001) ctrl-wet 6: no recs for i =    21           0
(PID.TID 0000.0001) ctrl-wet 6: no recs for i =    22           0
(PID.TID 0000.0001) ctrl-wet 6: no recs for i =    23           0
(PID.TID 0000.0001) ctrl-wet 6: no recs for i =    24           0
(PID.TID 0000.0001) ctrl-wet 6: no recs for i =    25           0
(PID.TID 0000.0001) ctrl-wet 6: no recs for i =    26           0
(PID.TID 0000.0001) ctrl-wet 6: no recs for i =    27           0
(PID.TID 0000.0001) ctrl-wet 6: no recs for i =    28           0
(PID.TID 0000.0001) ctrl-wet 6: no recs for i =    29           0
(PID.TID 0000.0001) ctrl-wet 6: no recs for i =    30           0
(PID.TID 0000.0001) ctrl-wet 6: no recs for i =    31           0
(PID.TID 0000.0001) ctrl-wet 6: no recs for i =    32           2
(PID.TID 0000.0001) ctrl-wet 6: no recs for i =    33           0
(PID.TID 0000.0001) ctrl-wet 6: no recs for i =    34           2
(PID.TID 0000.0001) ctrl-wet 6: no recs for i =    35           0
(PID.TID 0000.0001) ctrl-wet 6: no recs for i =    36           2
(PID.TID 0000.0001) ctrl-wet 6: no recs for i =    37           0
(PID.TID 0000.0001) ctrl-wet 6: no recs for i =    38           0
(PID.TID 0000.0001) ctrl-wet 6: no recs for i =    39           0
(PID.TID 0000.0001) ctrl-wet 6: no recs for i =    40           0
(PID.TID 0000.0001) ctrl-wet 6: no recs for i =    41           0
(PID.TID 0000.0001) ctrl-wet 6: no recs for i =    42           0
(PID.TID 0000.0001) ctrl-wet 6: no recs for i =    43           0
(PID.TID 0000.0001) ctrl-wet 6: no recs for i =    44           1
(PID.TID 0000.0001) ctrl-wet 6: no recs for i =    45           0
(PID.TID 0000.0001) ctrl-wet 6: no recs for i =    46           0
(PID.TID 0000.0001) ctrl-wet 6: no recs for i =    47           0
(PID.TID 0000.0001) ctrl-wet 6: no recs for i =    48           0
(PID.TID 0000.0001) ctrl-wet 6: no recs for i =    49           0
(PID.TID 0000.0001) ctrl-wet 6: no recs for i =    50           0
(PID.TID 0000.0001) ctrl-wet 6: no recs for i =    51           0
(PID.TID 0000.0001) ctrl-wet 6: no recs for i =    52           0
(PID.TID 0000.0001) ctrl-wet 6: no recs for i =    53           0
(PID.TID 0000.0001) ctrl-wet 6: no recs for i =    54           0
(PID.TID 0000.0001) ctrl-wet 6: no recs for i =    55           0
(PID.TID 0000.0001) ctrl-wet 6: no recs for i =    56           0
(PID.TID 0000.0001) ctrl-wet 6: no recs for i =    57           0
(PID.TID 0000.0001) ctrl-wet 6: no recs for i =    58           0
(PID.TID 0000.0001) ctrl-wet 6: no recs for i =    59           0
(PID.TID 0000.0001) ctrl-wet 6: no recs for i =    60           0
(PID.TID 0000.0001) ctrl-wet 7: flux         21398
(PID.TID 0000.0001) ctrl-wet 8: atmos        23268
(PID.TID 0000.0001) ctrl-wet -------------------------------------------------
(PID.TID 0000.0001) ctrl-wet 13: global nvarlength for Nr =   50      990810
(PID.TID 0000.0001) ctrl-wet -------------------------------------------------
(PID.TID 0000.0001) ctrl-wet 14: global nWet C/S/W/V k=    1        4420        4232        4206           0
(PID.TID 0000.0001) ctrl-wet 14: global nWet C/S/W/V k=    2        4420        4232        4206           0
(PID.TID 0000.0001) ctrl-wet 14: global nWet C/S/W/V k=    3        4420        4232        4206           0
(PID.TID 0000.0001) ctrl-wet 14: global nWet C/S/W/V k=    4        4420        4232        4206           0
(PID.TID 0000.0001) ctrl-wet 14: global nWet C/S/W/V k=    5        4420        4232        4206           0
(PID.TID 0000.0001) ctrl-wet 14: global nWet C/S/W/V k=    6        4313        4125        4106           0
(PID.TID 0000.0001) ctrl-wet 14: global nWet C/S/W/V k=    7        4297        4110        4095           0
(PID.TID 0000.0001) ctrl-wet 14: global nWet C/S/W/V k=    8        4285        4097        4081           0
(PID.TID 0000.0001) ctrl-wet 14: global nWet C/S/W/V k=    9        4276        4090        4073           0
(PID.TID 0000.0001) ctrl-wet 14: global nWet C/S/W/V k=   10        4258        4074        4058           0
(PID.TID 0000.0001) ctrl-wet 14: global nWet C/S/W/V k=   11        4248        4065        4049           0
(PID.TID 0000.0001) ctrl-wet 14: global nWet C/S/W/V k=   12        4235        4051        4035           0
(PID.TID 0000.0001) ctrl-wet 14: global nWet C/S/W/V k=   13        4224        4039        4026           0
(PID.TID 0000.0001) ctrl-wet 14: global nWet C/S/W/V k=   14        4205        4026        4008           0
(PID.TID 0000.0001) ctrl-wet 14: global nWet C/S/W/V k=   15        4194        4015        3996           0
(PID.TID 0000.0001) ctrl-wet 14: global nWet C/S/W/V k=   16        4185        4005        3987           0
(PID.TID 0000.0001) ctrl-wet 14: global nWet C/S/W/V k=   17        4172        3993        3972           0
(PID.TID 0000.0001) ctrl-wet 14: global nWet C/S/W/V k=   18        4151        3972        3951           0
(PID.TID 0000.0001) ctrl-wet 14: global nWet C/S/W/V k=   19        4134        3954        3931           0
(PID.TID 0000.0001) ctrl-wet 14: global nWet C/S/W/V k=   20        4122        3942        3921           0
(PID.TID 0000.0001) ctrl-wet 14: global nWet C/S/W/V k=   21        4109        3929        3906           0
(PID.TID 0000.0001) ctrl-wet 14: global nWet C/S/W/V k=   22        4096        3916        3891           0
(PID.TID 0000.0001) ctrl-wet 14: global nWet C/S/W/V k=   23        4081        3899        3878           0
(PID.TID 0000.0001) ctrl-wet 14: global nWet C/S/W/V k=   24        4046        3863        3845           0
(PID.TID 0000.0001) ctrl-wet 14: global nWet C/S/W/V k=   25        4028        3847        3829           0
(PID.TID 0000.0001) ctrl-wet 14: global nWet C/S/W/V k=   26        4013        3831        3812           0
(PID.TID 0000.0001) ctrl-wet 14: global nWet C/S/W/V k=   27        4002        3819        3801           0
(PID.TID 0000.0001) ctrl-wet 14: global nWet C/S/W/V k=   28        3981        3798        3782           0
(PID.TID 0000.0001) ctrl-wet 14: global nWet C/S/W/V k=   29        3971        3786        3768           0
(PID.TID 0000.0001) ctrl-wet 14: global nWet C/S/W/V k=   30        3944        3756        3737           0
(PID.TID 0000.0001) ctrl-wet 14: global nWet C/S/W/V k=   31        3932        3746        3725           0
(PID.TID 0000.0001) ctrl-wet 14: global nWet C/S/W/V k=   32        3910        3723        3700           0
(PID.TID 0000.0001) ctrl-wet 14: global nWet C/S/W/V k=   33        3897        3709        3684           0
(PID.TID 0000.0001) ctrl-wet 14: global nWet C/S/W/V k=   34        3879        3689        3665           0
(PID.TID 0000.0001) ctrl-wet 14: global nWet C/S/W/V k=   35        3840        3652        3627           0
(PID.TID 0000.0001) ctrl-wet 14: global nWet C/S/W/V k=   36        3818        3628        3607           0
(PID.TID 0000.0001) ctrl-wet 14: global nWet C/S/W/V k=   37        3799        3605        3585           0
(PID.TID 0000.0001) ctrl-wet 14: global nWet C/S/W/V k=   38        3748        3547        3515           0
(PID.TID 0000.0001) ctrl-wet 14: global nWet C/S/W/V k=   39        3712        3509        3474           0
(PID.TID 0000.0001) ctrl-wet 14: global nWet C/S/W/V k=   40        3675        3469        3431           0
(PID.TID 0000.0001) ctrl-wet 14: global nWet C/S/W/V k=   41        3582        3369        3334           0
(PID.TID 0000.0001) ctrl-wet 14: global nWet C/S/W/V k=   42        3512        3293        3254           0
(PID.TID 0000.0001) ctrl-wet 14: global nWet C/S/W/V k=   43        3302        3039        3018           0
(PID.TID 0000.0001) ctrl-wet 14: global nWet C/S/W/V k=   44        3092        2794        2784           0
(PID.TID 0000.0001) ctrl-wet 14: global nWet C/S/W/V k=   45        2721        2419        2394           0
(PID.TID 0000.0001) ctrl-wet 14: global nWet C/S/W/V k=   46        2237        1936        1924           0
(PID.TID 0000.0001) ctrl-wet 14: global nWet C/S/W/V k=   47        1745        1471        1443           0
(PID.TID 0000.0001) ctrl-wet 14: global nWet C/S/W/V k=   48        1133         922         899           0
(PID.TID 0000.0001) ctrl-wet 14: global nWet C/S/W/V k=   49         483         345         328           0
(PID.TID 0000.0001) ctrl-wet 14: global nWet C/S/W/V k=   50          99          61          53           0
(PID.TID 0000.0001) ctrl-wet -------------------------------------------------
(PID.TID 0000.0001) ctrl-wet -------------------------------------------------
(PID.TID 0000.0001) ctrl-wet -------------------------------------------------
(PID.TID 0000.0001) ctrl_init: no. of control variables:           12
(PID.TID 0000.0001) ctrl_init: control vector length:          990810
(PID.TID 0000.0001) // =======================================================
(PID.TID 0000.0001) // Seaice configuration (SEAICE_PARM01) >>> START <<<
(PID.TID 0000.0001) // =======================================================
(PID.TID 0000.0001) 
(PID.TID 0000.0001)    Seaice time stepping configuration   > START <
(PID.TID 0000.0001)    ----------------------------------------------
(PID.TID 0000.0001) SEAICE_deltaTtherm= /* thermodynamic timestep */
(PID.TID 0000.0001)                 3.600000000000000E+03
(PID.TID 0000.0001)     ;
(PID.TID 0000.0001) SEAICE_deltaTdyn  = /* dynamic timestep */
(PID.TID 0000.0001)                 3.600000000000000E+03
(PID.TID 0000.0001)     ;
(PID.TID 0000.0001) SEAICE_deltaTevp  = /* EVP timestep */
(PID.TID 0000.0001)                 1.234567000000000E+05
(PID.TID 0000.0001)     ;
(PID.TID 0000.0001) SEAICEuseAB2  = /* use Adams-Bashforth for mom. eq. */
(PID.TID 0000.0001)                   F
(PID.TID 0000.0001)     ;
(PID.TID 0000.0001) SEAICErestoreUnderIce  = /* restore T and S under ice */
(PID.TID 0000.0001)                   T
(PID.TID 0000.0001)     ;
(PID.TID 0000.0001) 
(PID.TID 0000.0001)    Seaice dynamics configuration   > START <
(PID.TID 0000.0001)    ------------------------------------------
(PID.TID 0000.0001) SEAICEuseDYNAMICS = /* use dynamics */
(PID.TID 0000.0001)                   T
(PID.TID 0000.0001)     ;
(PID.TID 0000.0001) model grid type   = /* type of sea ice model grid */
(PID.TID 0000.0001)               'C-GRID'
(PID.TID 0000.0001)     ;
(PID.TID 0000.0001) SEAICEuseEVP      = /* use EVP solver rather than LSR */
(PID.TID 0000.0001)                   F
(PID.TID 0000.0001)     ;
(PID.TID 0000.0001) SEAICEuseFREEDRIFT = /* use free drift solution */
(PID.TID 0000.0001)                   F
(PID.TID 0000.0001)     ;
(PID.TID 0000.0001) OCEAN_drag        = /* air-ocean drag coefficient */
(PID.TID 0000.0001)                 1.000000000000000E-03
(PID.TID 0000.0001)     ;
(PID.TID 0000.0001) SEAICE_drag       = /* air-ice drag coefficient */
(PID.TID 0000.0001)                 2.000000000000000E-03
(PID.TID 0000.0001)     ;
(PID.TID 0000.0001) SEAICE_drag_south      = /* Southern Ocean SEAICE_drag */
(PID.TID 0000.0001)                 2.000000000000000E-03
(PID.TID 0000.0001)     ;
(PID.TID 0000.0001) SEAICE_waterDrag  = /* water-ice drag * density */
(PID.TID 0000.0001)                 5.500000000000000E+00
(PID.TID 0000.0001)     ;
(PID.TID 0000.0001) SEAICE_waterDrag_south = /* Southern Ocean waterDrag */
(PID.TID 0000.0001)                 5.500000000000000E+00
(PID.TID 0000.0001)     ;
(PID.TID 0000.0001) SEAICEuseTilt     = /* include surface tilt in dyna. */
(PID.TID 0000.0001)                   F
(PID.TID 0000.0001)     ;
(PID.TID 0000.0001) SEAICEuseTEM      = /* use truncated ellipse rheology */
(PID.TID 0000.0001)                   F
(PID.TID 0000.0001)     ;
(PID.TID 0000.0001) SEAICE_strength   = /* sea-ice strength Pstar */
(PID.TID 0000.0001)                 2.750000000000000E+04
(PID.TID 0000.0001)     ;
(PID.TID 0000.0001) SEAICEpresH0   = /* sea-ice strength Heff threshold */
(PID.TID 0000.0001)                 2.000000000000000E+00
(PID.TID 0000.0001)     ;
(PID.TID 0000.0001) SEAICEpresPow0 = /* exponent for Heff<SEAICEpresH0 */
(PID.TID 0000.0001)                       1
(PID.TID 0000.0001)     ;
(PID.TID 0000.0001) SEAICEpresPow1 = /* exponent for Heff>SEAICEpresH0 */
(PID.TID 0000.0001)                       3
(PID.TID 0000.0001)     ;
(PID.TID 0000.0001) SEAICEetaZmethod = /* method computing eta at Z-point */
(PID.TID 0000.0001)                       0
(PID.TID 0000.0001)     ;
(PID.TID 0000.0001) SEAICE_zetaMin    = /* lower bound for viscosity */
(PID.TID 0000.0001)                 0.000000000000000E+00
(PID.TID 0000.0001)     ;
(PID.TID 0000.0001) SEAICE_eccen    = /* elliptical yield curve eccent */
(PID.TID 0000.0001)                 2.000000000000000E+00
(PID.TID 0000.0001)     ;
(PID.TID 0000.0001) SEAICEstressFactor    = /* wind stress scaling factor */
(PID.TID 0000.0001)                 1.000000000000000E+00
(PID.TID 0000.0001)     ;
(PID.TID 0000.0001) SEAICE_airTurnAngle    = /* air-ice turning angle */
(PID.TID 0000.0001)                 0.000000000000000E+00
(PID.TID 0000.0001)     ;
(PID.TID 0000.0001) SEAICE_waterTurnAngle  = /* ice-water turning angle */
(PID.TID 0000.0001)                 0.000000000000000E+00
(PID.TID 0000.0001)     ;
(PID.TID 0000.0001) SEAICEuseMetricTerms = /* use metric terms */
(PID.TID 0000.0001)                   T
(PID.TID 0000.0001)     ;
(PID.TID 0000.0001) SEAICE_no_slip    = /* no slip boundary conditions */
(PID.TID 0000.0001)                   F
(PID.TID 0000.0001)     ;
(PID.TID 0000.0001) SEAICE_clipVeloctities = /* impose max. vels. */
(PID.TID 0000.0001)                   T
(PID.TID 0000.0001)     ;
(PID.TID 0000.0001) useHB87stressCoupling  = /* altern. ice-ocean stress */
(PID.TID 0000.0001)                   F
(PID.TID 0000.0001)     ;
(PID.TID 0000.0001) SEAICE_maskRHS    = /* mask RHS of solver */
(PID.TID 0000.0001)                   F
(PID.TID 0000.0001)     ;
(PID.TID 0000.0001) LSR_mixIniGuess = /* mix free-drift sol. into LSR initial Guess */
(PID.TID 0000.0001)                       0
(PID.TID 0000.0001)     ;
(PID.TID 0000.0001) SOLV_MAX_ITERS    = /* max. number of LSR solver steps */
(PID.TID 0000.0001)                    1500
(PID.TID 0000.0001)     ;
(PID.TID 0000.0001) SEAICE_LSRrelaxU  = /* LSR solver: relaxation parameter */
(PID.TID 0000.0001)                 9.500000000000000E-01
(PID.TID 0000.0001)     ;
(PID.TID 0000.0001) SEAICE_LSRrelaxV  = /* LSR solver: relaxation parameter */
(PID.TID 0000.0001)                 9.500000000000000E-01
(PID.TID 0000.0001)     ;
(PID.TID 0000.0001) LSR_ERROR         = /* sets accuracy of LSR solver */
(PID.TID 0000.0001)                 2.000000000000000E-04
(PID.TID 0000.0001)     ;
(PID.TID 0000.0001) SOLV_NCHECK       = /* test interval for LSR solver */
(PID.TID 0000.0001)                       2
(PID.TID 0000.0001)     ;
(PID.TID 0000.0001) NPSEUDOTIMESTEPS  = /* num. of extra pseudo time steps */
(PID.TID 0000.0001)                       2
(PID.TID 0000.0001)     ;
(PID.TID 0000.0001) SEAICEuseMultiTileSolver = /* use full domain tri-diag solver */
(PID.TID 0000.0001)                   F
(PID.TID 0000.0001)     ;
(PID.TID 0000.0001) SEAICE_OLx = /* overlap for LSR/preconditioner */
(PID.TID 0000.0001)                       2
(PID.TID 0000.0001)     ;
(PID.TID 0000.0001) SEAICE_OLy = /* overlap for LSR/preconditioner */
(PID.TID 0000.0001)                       2
(PID.TID 0000.0001)     ;
(PID.TID 0000.0001) 
(PID.TID 0000.0001)    Seaice advection diffusion config,   > START <
(PID.TID 0000.0001)    -----------------------------------------------
(PID.TID 0000.0001) SEAICEadvHeff = /* advect effective ice thickness */
(PID.TID 0000.0001)                   T
(PID.TID 0000.0001)     ;
(PID.TID 0000.0001) SEAICEadvArea = /* advect fractional ice area */
(PID.TID 0000.0001)                   T
(PID.TID 0000.0001)     ;
(PID.TID 0000.0001) SEAICEadvSnow = /* advect snow layer together with ice */
(PID.TID 0000.0001)                   T
(PID.TID 0000.0001)     ;
(PID.TID 0000.0001) SEAICEadvScheme   = /* advection scheme for ice */
(PID.TID 0000.0001)                      30
(PID.TID 0000.0001)     ;
(PID.TID 0000.0001) SEAICEadvSchArea   = /* advection scheme for area */
(PID.TID 0000.0001)                      30
(PID.TID 0000.0001)     ;
(PID.TID 0000.0001) SEAICEadvSchHeff   = /* advection scheme for thickness */
(PID.TID 0000.0001)                      30
(PID.TID 0000.0001)     ;
(PID.TID 0000.0001) SEAICEadvSchSnow   = /* advection scheme for snow */
(PID.TID 0000.0001)                      30
(PID.TID 0000.0001)     ;
(PID.TID 0000.0001) SEAICEdiffKhArea   = /* diffusivity (m^2/s) for area */
(PID.TID 0000.0001)                 4.000000000000000E+02
(PID.TID 0000.0001)     ;
(PID.TID 0000.0001) SEAICEdiffKhHeff   = /* diffusivity (m^2/s) for heff */
(PID.TID 0000.0001)                 4.000000000000000E+02
(PID.TID 0000.0001)     ;
(PID.TID 0000.0001) SEAICEdiffKhSnow   = /* diffusivity (m^2/s) for snow */
(PID.TID 0000.0001)                 4.000000000000000E+02
(PID.TID 0000.0001)     ;
(PID.TID 0000.0001) DIFF1             = /* parameter used in advect.F [m/s] */
(PID.TID 0000.0001)                 0.000000000000000E+00
(PID.TID 0000.0001)     ;
(PID.TID 0000.0001) 
(PID.TID 0000.0001)    Seaice thermodynamics configuration   > START <
(PID.TID 0000.0001)    -----------------------------------------------
(PID.TID 0000.0001) SEAICE_rhoIce     = /* density of sea ice (kg/m3) */
(PID.TID 0000.0001)                 9.100000000000000E+02
(PID.TID 0000.0001)     ;
(PID.TID 0000.0001) SEAICE_rhoSnow    = /* density of snow (kg/m3) */
(PID.TID 0000.0001)                 3.300000000000000E+02
(PID.TID 0000.0001)     ;
(PID.TID 0000.0001) SEAICE_rhoAir     = /* density of air (kg/m3) */
(PID.TID 0000.0001)                 1.220000000000000E+00
(PID.TID 0000.0001)     ;
(PID.TID 0000.0001) usePW79thermodynamics  = /* default 0-layer TD */
(PID.TID 0000.0001)                   T
(PID.TID 0000.0001)     ;
(PID.TID 0000.0001) SEAICE_lhEvap     = /* latent heat of evaporation */
(PID.TID 0000.0001)                 2.500000000000000E+06
(PID.TID 0000.0001)     ;
(PID.TID 0000.0001) SEAICE_lhFusion   = /* latent heat of fusion */
(PID.TID 0000.0001)                 3.340000000000000E+05
(PID.TID 0000.0001)     ;
(PID.TID 0000.0001) SEAICE_mcPheePiston = /* turbulent flux "piston velocity" a la McPhee (m/s) */
(PID.TID 0000.0001)                 3.858024691358025E-05
(PID.TID 0000.0001)     ;
(PID.TID 0000.0001) SEAICE_mcPheeTaper = /* tapering of turbulent flux (0.< <1.) for AREA=1. */
(PID.TID 0000.0001)                 0.000000000000000E+00
(PID.TID 0000.0001)     ;
(PID.TID 0000.0001) SEAICE_mcPheeStepFunc = /* replace linear tapering with step funct. */
(PID.TID 0000.0001)                   F
(PID.TID 0000.0001)     ;
(PID.TID 0000.0001) SEAICE_frazilFrac = /* frazil (T<tempFrz) to seaice conversion rate (0.< <1.) */
(PID.TID 0000.0001)                 1.000000000000000E+00
(PID.TID 0000.0001)     ;
(PID.TID 0000.0001) SEAICE_tempFrz0   = /* freezing temp. of sea water (intercept) */
(PID.TID 0000.0001)                -1.960000000000000E+00
(PID.TID 0000.0001)     ;
(PID.TID 0000.0001) SEAICE_dTempFrz_dS= /* freezing temp. of sea water (slope) */
(PID.TID 0000.0001)                 0.000000000000000E+00
(PID.TID 0000.0001)     ;
(PID.TID 0000.0001) SEAICE_growMeltByConv  = /* grow,melt by vert. conv. */
(PID.TID 0000.0001)                   F
(PID.TID 0000.0001)     ;
(PID.TID 0000.0001) SEAICE_doOpenWaterGrowth = /* grow by open water */
(PID.TID 0000.0001)                   T
(PID.TID 0000.0001)     ;
(PID.TID 0000.0001) SEAICE_doOpenWaterMelt = /* melt by open water */
(PID.TID 0000.0001)                   F
(PID.TID 0000.0001)     ;
(PID.TID 0000.0001) SEAICE_areaGainFormula = /* ice cover gain formula (1,2)*/
(PID.TID 0000.0001)                       1
(PID.TID 0000.0001)     1=from growth by ATM
(PID.TID 0000.0001)     2=from predicted growth by ATM
(PID.TID 0000.0001)     ;
(PID.TID 0000.0001) SEAICE_areaLossFormula = /* ice cover loss formula (1,2)*/
(PID.TID 0000.0001)                       2
(PID.TID 0000.0001)     1=from all but only melt conributions by ATM and OCN
(PID.TID 0000.0001)     2=from net melt-grow>0 by ATM and OCN
(PID.TID 0000.0001)     3=from predicted melt by ATM
(PID.TID 0000.0001)     ;
(PID.TID 0000.0001) HO                = /* nominal thickness of new ice */
(PID.TID 0000.0001)                 5.000000000000000E-01
(PID.TID 0000.0001)     ;
(PID.TID 0000.0001) HO_south               = /* Southern Ocean HO */
(PID.TID 0000.0001)                 5.000000000000000E-01
(PID.TID 0000.0001)     ;
(PID.TID 0000.0001) SEAICE_area_max        = /* set to les than 1. to mimic open leads */
(PID.TID 0000.0001)                 1.000000000000000E+00
(PID.TID 0000.0001)     ;
(PID.TID 0000.0001) SEAICE_salt0   = /* constant sea ice salinity */
(PID.TID 0000.0001)                 4.000000000000000E+00
(PID.TID 0000.0001)     ;
(PID.TID 0000.0001) SEAICE_salinityTracer = /* test SITR varia. salinity */
(PID.TID 0000.0001)                   F
(PID.TID 0000.0001)     ;
(PID.TID 0000.0001) SEAICEuseFlooding = /* turn submerged snow into ice */
(PID.TID 0000.0001)                   T
(PID.TID 0000.0001)     ;
(PID.TID 0000.0001) 
(PID.TID 0000.0001)    Seaice air-sea fluxes configuration,   > START <
(PID.TID 0000.0001)    -----------------------------------------------
(PID.TID 0000.0001) SEAICEheatConsFix  = /* accound for ocn<->seaice advect. heat flux */
(PID.TID 0000.0001)                   T
(PID.TID 0000.0001)     ;
(PID.TID 0000.0001) SEAICE_multDim    = /* number of ice categories (1 or 7) */
(PID.TID 0000.0001)                       1
(PID.TID 0000.0001)     ;
(PID.TID 0000.0001) IMAX_TICE         = /* iterations for ice surface temp */
(PID.TID 0000.0001)                      10
(PID.TID 0000.0001)     ;
(PID.TID 0000.0001) postSolvTempIter= /* flux calculation after surf. temp iter */
(PID.TID 0000.0001)                       2
(PID.TID 0000.0001)     ;
(PID.TID 0000.0001) SEAICE_dryIceAlb  = /* winter albedo */
(PID.TID 0000.0001)                 7.500000000000000E-01
(PID.TID 0000.0001)     ;
(PID.TID 0000.0001) SEAICE_wetIceAlb  = /* summer albedo */
(PID.TID 0000.0001)                 6.600000000000000E-01
(PID.TID 0000.0001)     ;
(PID.TID 0000.0001) SEAICE_drySnowAlb = /* dry snow albedo */
(PID.TID 0000.0001)                 8.400000000000000E-01
(PID.TID 0000.0001)     ;
(PID.TID 0000.0001) SEAICE_wetSnowAlb = /* wet snow albedo */
(PID.TID 0000.0001)                 7.000000000000000E-01
(PID.TID 0000.0001)     ;
(PID.TID 0000.0001) SEAICE_dryIceAlb_south = /* Southern Ocean dryIceAlb */
(PID.TID 0000.0001)                 7.500000000000000E-01
(PID.TID 0000.0001)     ;
(PID.TID 0000.0001) SEAICE_wetIceAlb_south = /* Southern Ocean wetIceAlb */
(PID.TID 0000.0001)                 6.600000000000000E-01
(PID.TID 0000.0001)     ;
(PID.TID 0000.0001) SEAICE_drySnowAlb_south= /* Southern Ocean drySnowAlb */
(PID.TID 0000.0001)                 8.400000000000000E-01
(PID.TID 0000.0001)     ;
(PID.TID 0000.0001) SEAICE_wetSnowAlb_south= /* Southern Ocean wetSnowAlb */
(PID.TID 0000.0001)                 7.000000000000000E-01
(PID.TID 0000.0001)     ;
(PID.TID 0000.0001) SEAICE_wetAlbTemp= /* Temp (o.C) threshold for wet-albedo */
(PID.TID 0000.0001)                -1.000000000000000E-03
(PID.TID 0000.0001)     ;
(PID.TID 0000.0001) SEAICE_snow_emiss = /* snow emissivity */
(PID.TID 0000.0001)                 9.500000000000000E-01
(PID.TID 0000.0001)     ;
(PID.TID 0000.0001) SEAICE_ice_emiss = /* seaice emissivity */
(PID.TID 0000.0001)                 9.500000000000000E-01
(PID.TID 0000.0001)     ;
(PID.TID 0000.0001) SEAICE_cpAir      = /* heat capacity of air */
(PID.TID 0000.0001)                 1.005000000000000E+03
(PID.TID 0000.0001)     ;
(PID.TID 0000.0001) SEAICE_dalton     = /* constant dalton number */
(PID.TID 0000.0001)                 1.750000000000000E-03
(PID.TID 0000.0001)     ;
(PID.TID 0000.0001) SEAICE_iceConduct = /* sea-ice conductivity */
(PID.TID 0000.0001)                 2.165600000000000E+00
(PID.TID 0000.0001)     ;
(PID.TID 0000.0001) SEAICE_snowConduct= /* snow conductivity */
(PID.TID 0000.0001)                 3.100000000000000E-01
(PID.TID 0000.0001)     ;
(PID.TID 0000.0001) SEAICE_snowThick  = /* cutoff snow thickness (for albedo) */
(PID.TID 0000.0001)                 1.500000000000000E-01
(PID.TID 0000.0001)     ;
(PID.TID 0000.0001) SEAICE_shortwave  = /* penetration shortwave radiation */
(PID.TID 0000.0001)                 3.000000000000000E-01
(PID.TID 0000.0001)     ;
(PID.TID 0000.0001) useMaykutSatVapPoly = /* use Maykut Polynomial for Sat.Vap.Pr */
(PID.TID 0000.0001)                   F
(PID.TID 0000.0001)     ;
(PID.TID 0000.0001) MIN_ATEMP         = /* minimum air temperature */
(PID.TID 0000.0001)                -4.000000000000000E+01
(PID.TID 0000.0001)     ;
(PID.TID 0000.0001) MIN_LWDOWN        = /* minimum downward longwave */
(PID.TID 0000.0001)                 6.000000000000000E+01
(PID.TID 0000.0001)     ;
(PID.TID 0000.0001) MIN_TICE          = /* minimum ice temperature */
(PID.TID 0000.0001)                -4.000000000000000E+01
(PID.TID 0000.0001)     ;
(PID.TID 0000.0001) 
(PID.TID 0000.0001)    Seaice initialization and IO config.,   > START <
(PID.TID 0000.0001)    -------------------------------------------------
(PID.TID 0000.0001) SEAICE_initialHEFF= /* initial sea-ice thickness */
(PID.TID 0000.0001)                 0.000000000000000E+00
(PID.TID 0000.0001)     ;
(PID.TID 0000.0001) AreaFile = /* Initial ice concentration File */
(PID.TID 0000.0001)               'siAREA.ini'
(PID.TID 0000.0001)     ;
(PID.TID 0000.0001) HeffFile = /* Initial effective ice thickness File */
(PID.TID 0000.0001)               'siHEFF.ini'
(PID.TID 0000.0001)     ;
(PID.TID 0000.0001) HsnowFile = /* Initial snow thickness File */
(PID.TID 0000.0001)               'siHSNOW.ini'
(PID.TID 0000.0001)     ;
(PID.TID 0000.0001) uIceFile = /* Initial U-ice velocity File */
(PID.TID 0000.0001)               'siUICE.ini'
(PID.TID 0000.0001)     ;
(PID.TID 0000.0001) vIceFile = /* Initial V-ice velocity File */
(PID.TID 0000.0001)               'siVICE.ini'
(PID.TID 0000.0001)     ;
(PID.TID 0000.0001) SEAICEwriteState  = /* write sea ice state to file */
(PID.TID 0000.0001)                   F
(PID.TID 0000.0001)     ;
(PID.TID 0000.0001) SEAICE_monFreq  = /* monitor frequency */
(PID.TID 0000.0001)                 7.200000000000000E+03
(PID.TID 0000.0001)     ;
(PID.TID 0000.0001) SEAICE_dumpFreq   = /* dump frequency */
(PID.TID 0000.0001)                 0.000000000000000E+00
(PID.TID 0000.0001)     ;
(PID.TID 0000.0001) SEAICE_taveFreq   = /* time-averaging frequency */
(PID.TID 0000.0001)                 0.000000000000000E+00
(PID.TID 0000.0001)     ;
(PID.TID 0000.0001) SEAICE_mon_stdio  = /* write monitor to std-outp */
(PID.TID 0000.0001)                   T
(PID.TID 0000.0001)     ;
(PID.TID 0000.0001) SEAICE_dump_mdsio = /* write snap-shot   using MDSIO */
(PID.TID 0000.0001)                   T
(PID.TID 0000.0001)     ;
(PID.TID 0000.0001) SEAICE_tave_mdsio = /* write TimeAverage using MDSIO */
(PID.TID 0000.0001)                   T
(PID.TID 0000.0001)     ;
(PID.TID 0000.0001) 
(PID.TID 0000.0001)    Seaice regularization numbers,   > START <
(PID.TID 0000.0001)    -----------------------------------------------
(PID.TID 0000.0001) SEAICE_EPS        = /* reduce derivative singularities */
(PID.TID 0000.0001)                 1.000000000000000E-10
(PID.TID 0000.0001)     ;
(PID.TID 0000.0001) SEAICE_EPS_SQ     = /* reduce derivative singularities */
(PID.TID 0000.0001)                 1.000000000000000E-20
(PID.TID 0000.0001)     ;
(PID.TID 0000.0001) SEAICE_area_reg   = /* reduce derivative singularities */
(PID.TID 0000.0001)                 1.000000000000000E-05
(PID.TID 0000.0001)     ;
(PID.TID 0000.0001) SEAICE_hice_reg   = /* reduce derivative singularities */
(PID.TID 0000.0001)                 5.000000000000000E-02
(PID.TID 0000.0001)     ;
(PID.TID 0000.0001) SEAICE_area_floor = /* reduce derivative singularities */
(PID.TID 0000.0001)                 1.000000000000000E-05
(PID.TID 0000.0001)     ;
(PID.TID 0000.0001) 
(PID.TID 0000.0001) // =======================================================
(PID.TID 0000.0001) // Seaice configuration (SEAICE_PARM01) >>> END <<<
(PID.TID 0000.0001) // =======================================================
(PID.TID 0000.0001) 
(PID.TID 0000.0001) INI_GLOBAL_DOMAIN: Found  19 CS-corner Pts in the domain
(PID.TID 0000.0001) %MON fCori_max                    =   1.4574827780704E-04
(PID.TID 0000.0001) %MON fCori_min                    =  -1.4574827780704E-04
(PID.TID 0000.0001) %MON fCori_mean                   =   1.1293772630057E-21
(PID.TID 0000.0001) %MON fCori_sd                     =   8.4202189509968E-05
(PID.TID 0000.0001) %MON fCoriG_max                   =   1.4584247033981E-04
(PID.TID 0000.0001) %MON fCoriG_min                   =  -1.4584247033981E-04
(PID.TID 0000.0001) %MON fCoriG_mean                  =   1.4117215787572E-20
(PID.TID 0000.0001) %MON fCoriG_sd                    =   8.4202189509968E-05
(PID.TID 0000.0001) %MON fCoriCos_max                 =   1.4580166994612E-04
(PID.TID 0000.0001) %MON fCoriCos_min                 =   5.2407700865903E-06
(PID.TID 0000.0001) %MON fCoriCos_mean                =   1.1514045869113E-04
(PID.TID 0000.0001) %MON fCoriCos_sd                  =   3.0375849106513E-05
(PID.TID 0000.0001) INI_CG2D: CG2D normalisation factor =  1.6658494934563737E-04
(PID.TID 0000.0001) INI_CG2D: cg2dTolerance = 1.683834825981835E-05 (Area=3.6388673751E+14)
(PID.TID 0000.0001) 
(PID.TID 0000.0001) // =======================================================
(PID.TID 0000.0001) // Model configuration
(PID.TID 0000.0001) // =======================================================
(PID.TID 0000.0001) //
(PID.TID 0000.0001) // "Physical" paramters ( PARM01 in namelist )
(PID.TID 0000.0001) //
(PID.TID 0000.0001) buoyancyRelation = /* Type of relation to get Buoyancy */
(PID.TID 0000.0001)               'OCEANIC'
(PID.TID 0000.0001)     ;
(PID.TID 0000.0001) fluidIsAir   =  /* fluid major constituent is Air */
(PID.TID 0000.0001)                   F
(PID.TID 0000.0001)     ;
(PID.TID 0000.0001) fluidIsWater =  /* fluid major constituent is Water */
(PID.TID 0000.0001)                   T
(PID.TID 0000.0001)     ;
(PID.TID 0000.0001) usingPCoords =  /* use p (or p*) vertical coordinate */
(PID.TID 0000.0001)                   F
(PID.TID 0000.0001)     ;
(PID.TID 0000.0001) usingZCoords =  /* use z (or z*) vertical coordinate */
(PID.TID 0000.0001)                   T
(PID.TID 0000.0001)     ;
(PID.TID 0000.0001) tRef =   /* Reference temperature profile ( oC or K ) */
(PID.TID 0000.0001)     3 @  2.300000000000000E+01,             /* K =  1:  3 */
(PID.TID 0000.0001)     3 @  2.200000000000000E+01,             /* K =  4:  6 */
(PID.TID 0000.0001)                 2.100000000000000E+01,      /* K =  7 */
(PID.TID 0000.0001)     2 @  2.000000000000000E+01,             /* K =  8:  9 */
(PID.TID 0000.0001)                 1.900000000000000E+01,      /* K = 10 */
(PID.TID 0000.0001)     2 @  1.800000000000000E+01,             /* K = 11: 12 */
(PID.TID 0000.0001)                 1.700000000000000E+01,      /* K = 13 */
(PID.TID 0000.0001)     2 @  1.600000000000000E+01,             /* K = 14: 15 */
(PID.TID 0000.0001)                 1.500000000000000E+01,      /* K = 16 */
(PID.TID 0000.0001)                 1.400000000000000E+01,      /* K = 17 */
(PID.TID 0000.0001)                 1.300000000000000E+01,      /* K = 18 */
(PID.TID 0000.0001)                 1.200000000000000E+01,      /* K = 19 */
(PID.TID 0000.0001)                 1.100000000000000E+01,      /* K = 20 */
(PID.TID 0000.0001)     2 @  9.000000000000000E+00,             /* K = 21: 22 */
(PID.TID 0000.0001)                 8.000000000000000E+00,      /* K = 23 */
(PID.TID 0000.0001)                 7.000000000000000E+00,      /* K = 24 */
(PID.TID 0000.0001)     2 @  6.000000000000000E+00,             /* K = 25: 26 */
(PID.TID 0000.0001)     2 @  5.000000000000000E+00,             /* K = 27: 28 */
(PID.TID 0000.0001)     3 @  4.000000000000000E+00,             /* K = 29: 31 */
(PID.TID 0000.0001)     3 @  3.000000000000000E+00,             /* K = 32: 34 */
(PID.TID 0000.0001)     4 @  2.000000000000000E+00,             /* K = 35: 38 */
(PID.TID 0000.0001)    12 @  1.000000000000000E+00              /* K = 39: 50 */
(PID.TID 0000.0001)     ;
(PID.TID 0000.0001) sRef =   /* Reference salinity profile ( psu ) */
(PID.TID 0000.0001)    50 @  3.450000000000000E+01              /* K =  1: 50 */
(PID.TID 0000.0001)     ;
(PID.TID 0000.0001) useStrainTensionVisc= /* Use StrainTension Form of Viscous Operator */
(PID.TID 0000.0001)                   F
(PID.TID 0000.0001)     ;
(PID.TID 0000.0001) useVariableVisc = /* Use variable horizontal viscosity */
(PID.TID 0000.0001)                   T
(PID.TID 0000.0001)     ;
(PID.TID 0000.0001) useHarmonicVisc = /* Use harmonic horizontal viscosity */
(PID.TID 0000.0001)                   T
(PID.TID 0000.0001)     ;
(PID.TID 0000.0001) useBiharmonicVisc= /* Use biharmonic horiz.  viscosity */
(PID.TID 0000.0001)                   F
(PID.TID 0000.0001)     ;
(PID.TID 0000.0001) useSmag3D = /* Use isotropic 3-D Smagorinsky viscosity */
(PID.TID 0000.0001)                   F
(PID.TID 0000.0001)     ;
(PID.TID 0000.0001) viscAh  =   /* Lateral harmonic viscosity ( m^2/s ) */
(PID.TID 0000.0001)                 1.000000000000000E+00
(PID.TID 0000.0001)     ;
(PID.TID 0000.0001) viscAhMax = /* Maximum lateral harmonic viscosity ( m^2/s ) */
(PID.TID 0000.0001)                 1.000000000000000E+21
(PID.TID 0000.0001)     ;
(PID.TID 0000.0001) viscAhGrid = /* Grid dependent lateral harmonic viscosity ( non-dim. ) */
(PID.TID 0000.0001)                 2.000000000000000E-02
(PID.TID 0000.0001)     ;
(PID.TID 0000.0001) useFullLeith = /* Use Full Form of Leith Viscosity on/off flag*/
(PID.TID 0000.0001)                   F
(PID.TID 0000.0001)     ;
(PID.TID 0000.0001) useAreaViscLength = /* Use area for visc length instead of geom. mean*/
(PID.TID 0000.0001)                   F
(PID.TID 0000.0001)     ;
(PID.TID 0000.0001) viscC2leith = /* Leith harmonic visc. factor (on grad(vort),non-dim.) */
(PID.TID 0000.0001)                 0.000000000000000E+00
(PID.TID 0000.0001)     ;
(PID.TID 0000.0001) viscC2leithD = /* Leith harmonic viscosity factor (on grad(div),non-dim.)*/
(PID.TID 0000.0001)                 0.000000000000000E+00
(PID.TID 0000.0001)     ;
(PID.TID 0000.0001) viscC2smag = /* Smagorinsky harmonic viscosity factor (non-dim.) */
(PID.TID 0000.0001)                 0.000000000000000E+00
(PID.TID 0000.0001)     ;
(PID.TID 0000.0001) viscA4  =   /* Lateral biharmonic viscosity ( m^4/s ) */
(PID.TID 0000.0001)                 0.000000000000000E+00
(PID.TID 0000.0001)     ;
(PID.TID 0000.0001) viscA4Max = /* Maximum biharmonic viscosity ( m^2/s ) */
(PID.TID 0000.0001)                 1.000000000000000E+21
(PID.TID 0000.0001)     ;
(PID.TID 0000.0001) viscA4Grid = /* Grid dependent biharmonic viscosity ( non-dim. ) */
(PID.TID 0000.0001)                 0.000000000000000E+00
(PID.TID 0000.0001)     ;
(PID.TID 0000.0001) viscC4leith = /* Leith biharm viscosity factor (on grad(vort), non-dim.)*/
(PID.TID 0000.0001)                 0.000000000000000E+00
(PID.TID 0000.0001)     ;
(PID.TID 0000.0001) viscC4leithD = /* Leith biharm viscosity factor (on grad(div), non-dim.) */
(PID.TID 0000.0001)                 0.000000000000000E+00
(PID.TID 0000.0001)     ;
(PID.TID 0000.0001) viscC4Smag = /* Smagorinsky biharm viscosity factor (non-dim) */
(PID.TID 0000.0001)                 0.000000000000000E+00
(PID.TID 0000.0001)     ;
(PID.TID 0000.0001) no_slip_sides =  /* Viscous BCs: No-slip sides */
(PID.TID 0000.0001)                   T
(PID.TID 0000.0001)     ;
(PID.TID 0000.0001) sideDragFactor = /* side-drag scaling factor (non-dim) */
(PID.TID 0000.0001)                 2.000000000000000E+00
(PID.TID 0000.0001)     ;
(PID.TID 0000.0001) viscArNr = /* vertical profile of vertical viscosity ( m^2/s )*/
(PID.TID 0000.0001)    50 @  1.000000000000000E-03              /* K =  1: 50 */
(PID.TID 0000.0001)     ;
(PID.TID 0000.0001) no_slip_bottom =  /* Viscous BCs: No-slip bottom */
(PID.TID 0000.0001)                   T
(PID.TID 0000.0001)     ;
(PID.TID 0000.0001) bottomDragLinear = /* linear bottom-drag coefficient ( m/s ) */
(PID.TID 0000.0001)                 0.000000000000000E+00
(PID.TID 0000.0001)     ;
(PID.TID 0000.0001) bottomDragQuadratic = /* quadratic bottom-drag coefficient (-) */
(PID.TID 0000.0001)                 1.000000000000000E-03
(PID.TID 0000.0001)     ;
(PID.TID 0000.0001) diffKhT =   /* Laplacian diffusion of heat laterally ( m^2/s ) */
(PID.TID 0000.0001)                 1.000000000000000E+01
(PID.TID 0000.0001)     ;
(PID.TID 0000.0001) diffK4T =   /* Biharmonic diffusion of heat laterally ( m^4/s ) */
(PID.TID 0000.0001)                 0.000000000000000E+00
(PID.TID 0000.0001)     ;
(PID.TID 0000.0001) diffKhS =   /* Laplacian diffusion of salt laterally ( m^2/s ) */
(PID.TID 0000.0001)                 1.000000000000000E+01
(PID.TID 0000.0001)     ;
(PID.TID 0000.0001) diffK4S =   /* Biharmonic diffusion of salt laterally ( m^4/s ) */
(PID.TID 0000.0001)                 0.000000000000000E+00
(PID.TID 0000.0001)     ;
(PID.TID 0000.0001) diffKrNrT = /* vertical profile of vertical diffusion of Temp ( m^2/s )*/
(PID.TID 0000.0001)    50 @  1.000000000000000E-05              /* K =  1: 50 */
(PID.TID 0000.0001)     ;
(PID.TID 0000.0001) diffKrNrS = /* vertical profile of vertical diffusion of Salt ( m^2/s )*/
(PID.TID 0000.0001)    50 @  1.000000000000000E-05              /* K =  1: 50 */
(PID.TID 0000.0001)     ;
(PID.TID 0000.0001) diffKrBL79surf = /* Surface diffusion for Bryan and Lewis 79 ( m^2/s ) */
(PID.TID 0000.0001)                 0.000000000000000E+00
(PID.TID 0000.0001)     ;
(PID.TID 0000.0001) diffKrBL79deep = /* Deep diffusion for Bryan and Lewis 1979 ( m^2/s ) */
(PID.TID 0000.0001)                 0.000000000000000E+00
(PID.TID 0000.0001)     ;
(PID.TID 0000.0001) diffKrBL79scl = /* Depth scale for Bryan and Lewis 1979 ( m ) */
(PID.TID 0000.0001)                 2.000000000000000E+02
(PID.TID 0000.0001)     ;
(PID.TID 0000.0001) diffKrBL79Ho = /* Turning depth for Bryan and Lewis 1979 ( m ) */
(PID.TID 0000.0001)                -2.000000000000000E+03
(PID.TID 0000.0001)     ;
(PID.TID 0000.0001) ivdc_kappa = /* Implicit Vertical Diffusivity for Convection ( m^2/s) */
(PID.TID 0000.0001)                 1.000000000000000E+01
(PID.TID 0000.0001)     ;
(PID.TID 0000.0001) hMixCriteria=  /* Criteria for mixed-layer diagnostic */
(PID.TID 0000.0001)                -8.000000000000000E-01
(PID.TID 0000.0001)     ;
(PID.TID 0000.0001) dRhoSmall =  /* Parameter for mixed-layer diagnostic */
(PID.TID 0000.0001)                 1.000000000000000E-06
(PID.TID 0000.0001)     ;
(PID.TID 0000.0001) hMixSmooth=  /* Smoothing parameter for mixed-layer diagnostic */
(PID.TID 0000.0001)                 0.000000000000000E+00
(PID.TID 0000.0001)     ;
(PID.TID 0000.0001) eosType =  /* Type of Equation of State */
(PID.TID 0000.0001)               'JMD95Z'
(PID.TID 0000.0001)     ;
(PID.TID 0000.0001) celsius2K = /* 0 degree Celsius converted to Kelvin ( K ) */
(PID.TID 0000.0001)                 2.731500000000000E+02
(PID.TID 0000.0001)     ;
(PID.TID 0000.0001) rhoConst  = /* Reference density (Boussinesq)  ( kg/m^3 ) */
(PID.TID 0000.0001)                 1.029000000000000E+03
(PID.TID 0000.0001)     ;
(PID.TID 0000.0001) rhoFacC = /* normalized Reference density @ cell-Center (-) */
(PID.TID 0000.0001)    50 @  1.000000000000000E+00              /* K =  1: 50 */
(PID.TID 0000.0001)     ;
(PID.TID 0000.0001) rhoFacF = /* normalized Reference density @ W-Interface (-) */
(PID.TID 0000.0001)    51 @  1.000000000000000E+00              /* K =  1: 51 */
(PID.TID 0000.0001)     ;
(PID.TID 0000.0001) rhoConstFresh = /* Fresh-water reference density ( kg/m^3 ) */
(PID.TID 0000.0001)                 1.000000000000000E+03
(PID.TID 0000.0001)     ;
(PID.TID 0000.0001) gravity =   /* Gravitational acceleration ( m/s^2 ) */
(PID.TID 0000.0001)                 9.810000000000000E+00
(PID.TID 0000.0001)     ;
(PID.TID 0000.0001) gBaro =   /* Barotropic gravity ( m/s^2 ) */
(PID.TID 0000.0001)                 9.810000000000000E+00
(PID.TID 0000.0001)     ;
(PID.TID 0000.0001) rotationPeriod =   /* Rotation Period ( s ) */
(PID.TID 0000.0001)                 8.616400000000000E+04
(PID.TID 0000.0001)     ;
(PID.TID 0000.0001) omega =   /* Angular velocity ( rad/s ) */
(PID.TID 0000.0001)                 7.292123516990375E-05
(PID.TID 0000.0001)     ;
(PID.TID 0000.0001) f0 =   /* Reference coriolis parameter ( 1/s ) */
(PID.TID 0000.0001)                 1.000000000000000E-04
(PID.TID 0000.0001)     ;
(PID.TID 0000.0001) beta =   /* Beta ( 1/(m.s) ) */
(PID.TID 0000.0001)                 9.999999999999999E-12
(PID.TID 0000.0001)     ;
(PID.TID 0000.0001) fPrime =   /* Second coriolis parameter ( 1/s ) */
(PID.TID 0000.0001)                 0.000000000000000E+00
(PID.TID 0000.0001)     ;
(PID.TID 0000.0001) rigidLid =   /* Rigid lid on/off flag */
(PID.TID 0000.0001)                   F
(PID.TID 0000.0001)     ;
(PID.TID 0000.0001) implicitFreeSurface =   /* Implicit free surface on/off flag */
(PID.TID 0000.0001)                   T
(PID.TID 0000.0001)     ;
(PID.TID 0000.0001) freeSurfFac =   /* Implicit free surface factor */
(PID.TID 0000.0001)                 1.000000000000000E+00
(PID.TID 0000.0001)     ;
(PID.TID 0000.0001) implicSurfPress =  /* Surface Pressure implicit factor (0-1)*/
(PID.TID 0000.0001)                 1.000000000000000E+00
(PID.TID 0000.0001)     ;
(PID.TID 0000.0001) implicDiv2Dflow =  /* Barot. Flow Div. implicit factor (0-1)*/
(PID.TID 0000.0001)                 1.000000000000000E+00
(PID.TID 0000.0001)     ;
(PID.TID 0000.0001) uniformLin_PhiSurf = /* use uniform Bo_surf on/off flag*/
(PID.TID 0000.0001)                   T
(PID.TID 0000.0001)     ;
(PID.TID 0000.0001) uniformFreeSurfLev = /* free-surface level-index is uniform */
(PID.TID 0000.0001)                   T
(PID.TID 0000.0001)     ;
(PID.TID 0000.0001) hFacMin =   /* minimum partial cell factor (hFac) */
(PID.TID 0000.0001)                 2.000000000000000E-01
(PID.TID 0000.0001)     ;
(PID.TID 0000.0001) hFacMinDr = /* minimum partial cell thickness ( m) */
(PID.TID 0000.0001)                 2.000000000000000E-01
(PID.TID 0000.0001)     ;
(PID.TID 0000.0001) exactConserv =  /* Exact Volume Conservation on/off flag*/
(PID.TID 0000.0001)                   T
(PID.TID 0000.0001)     ;
(PID.TID 0000.0001) linFSConserveTr = /* Tracer correction for Lin Free Surface on/off flag*/
(PID.TID 0000.0001)                   F
(PID.TID 0000.0001)     ;
(PID.TID 0000.0001) nonlinFreeSurf = /* Non-linear Free Surf. options (-1,0,1,2,3)*/
(PID.TID 0000.0001)                       2
(PID.TID 0000.0001)      -1,0= Off ; 1,2,3= On, 2=+rescale gU,gV, 3=+update cg2d solv.
(PID.TID 0000.0001)     ;
(PID.TID 0000.0001) hFacInf =   /* lower threshold for hFac (nonlinFreeSurf only)*/
(PID.TID 0000.0001)                 2.000000000000000E-01
(PID.TID 0000.0001)     ;
(PID.TID 0000.0001) hFacSup =   /* upper threshold for hFac (nonlinFreeSurf only)*/
(PID.TID 0000.0001)                 2.000000000000000E+00
(PID.TID 0000.0001)     ;
(PID.TID 0000.0001) select_rStar = /* r* Vertical coord. options (=0 r coord.; >0 uses r*)*/
(PID.TID 0000.0001)                       2
(PID.TID 0000.0001)     ;
(PID.TID 0000.0001) useRealFreshWaterFlux = /* Real Fresh Water Flux on/off flag*/
(PID.TID 0000.0001)                   T
(PID.TID 0000.0001)     ;
(PID.TID 0000.0001) temp_EvPrRn = /* Temp. of Evap/Prec/R (UNSET=use local T)(oC)*/
(PID.TID 0000.0001)                 1.234567000000000E+05
(PID.TID 0000.0001)     ;
(PID.TID 0000.0001) salt_EvPrRn = /* Salin. of Evap/Prec/R (UNSET=use local S)(psu)*/
(PID.TID 0000.0001)                 0.000000000000000E+00
(PID.TID 0000.0001)     ;
(PID.TID 0000.0001) selectAddFluid = /* option for mass source/sink of fluid (=0: off) */
(PID.TID 0000.0001)                       0
(PID.TID 0000.0001)     ;
(PID.TID 0000.0001) temp_addMass = /* Temp. of addMass array (UNSET=use local T)(oC)*/
(PID.TID 0000.0001)                 1.234567000000000E+05
(PID.TID 0000.0001)     ;
(PID.TID 0000.0001) salt_addMass = /* Salin. of addMass array (UNSET=use local S)(psu)*/
(PID.TID 0000.0001)                 0.000000000000000E+00
(PID.TID 0000.0001)     ;
(PID.TID 0000.0001) use3Dsolver = /* use 3-D pressure solver on/off flag */
(PID.TID 0000.0001)                   F
(PID.TID 0000.0001)     ;
(PID.TID 0000.0001) nonHydrostatic =  /* Non-Hydrostatic on/off flag */
(PID.TID 0000.0001)                   F
(PID.TID 0000.0001)     ;
(PID.TID 0000.0001) nh_Am2 = /* Non-Hydrostatic terms scaling factor */
(PID.TID 0000.0001)                 1.000000000000000E+00
(PID.TID 0000.0001)     ;
(PID.TID 0000.0001) implicitNHPress = /* Non-Hyd Pressure implicit factor (0-1)*/
(PID.TID 0000.0001)                 1.000000000000000E+00
(PID.TID 0000.0001)     ;
(PID.TID 0000.0001) selectNHfreeSurf = /* Non-Hyd (free-)Surface option */
(PID.TID 0000.0001)                       0
(PID.TID 0000.0001)     ;
(PID.TID 0000.0001) quasiHydrostatic = /* Quasi-Hydrostatic on/off flag */
(PID.TID 0000.0001)                   F
(PID.TID 0000.0001)     ;
(PID.TID 0000.0001) calc_wVelocity = /* vertical velocity calculation on/off flag */
(PID.TID 0000.0001)                   T
(PID.TID 0000.0001)     ;
(PID.TID 0000.0001) momStepping =  /* Momentum equation on/off flag */
(PID.TID 0000.0001)                   T
(PID.TID 0000.0001)     ;
(PID.TID 0000.0001) vectorInvariantMomentum= /* Vector-Invariant Momentum on/off */
(PID.TID 0000.0001)                   T
(PID.TID 0000.0001)     ;
(PID.TID 0000.0001) momAdvection =  /* Momentum advection on/off flag */
(PID.TID 0000.0001)                   T
(PID.TID 0000.0001)     ;
(PID.TID 0000.0001) momViscosity =  /* Momentum viscosity on/off flag */
(PID.TID 0000.0001)                   T
(PID.TID 0000.0001)     ;
(PID.TID 0000.0001) momImplVertAdv= /* Momentum implicit vert. advection on/off*/
(PID.TID 0000.0001)                   F
(PID.TID 0000.0001)     ;
(PID.TID 0000.0001) implicitViscosity = /* Implicit viscosity on/off flag */
(PID.TID 0000.0001)                   T
(PID.TID 0000.0001)     ;
(PID.TID 0000.0001) metricTerms =  /* metric-Terms on/off flag */
(PID.TID 0000.0001)                   F
(PID.TID 0000.0001)     ;
(PID.TID 0000.0001) useNHMTerms = /* Non-Hydrostatic Metric-Terms on/off */
(PID.TID 0000.0001)                   F
(PID.TID 0000.0001)     ;
(PID.TID 0000.0001) selectCoriMap = /* Coriolis Map options (0,1,2,3)*/
(PID.TID 0000.0001)                       2
(PID.TID 0000.0001)     0= f-Plane ; 1= Beta-Plane ; 2= Spherical ; 3= read from file
(PID.TID 0000.0001)     ;
(PID.TID 0000.0001) use3dCoriolis = /* 3-D Coriolis on/off flag */
(PID.TID 0000.0001)                   F
(PID.TID 0000.0001)     ;
(PID.TID 0000.0001) useCoriolis =  /* Coriolis on/off flag */
(PID.TID 0000.0001)                   T
(PID.TID 0000.0001)     ;
(PID.TID 0000.0001) useCDscheme =  /* CD scheme on/off flag */
(PID.TID 0000.0001)                   F
(PID.TID 0000.0001)     ;
(PID.TID 0000.0001) useEnergyConservingCoriolis= /* Flx-Form Coriolis scheme flag */
(PID.TID 0000.0001)                   F
(PID.TID 0000.0001)     ;
(PID.TID 0000.0001) useJamartWetPoints= /* Coriolis WetPoints method flag */
(PID.TID 0000.0001)                   T
(PID.TID 0000.0001)     ;
(PID.TID 0000.0001) useJamartMomAdv= /* V.I Non-linear terms Jamart flag */
(PID.TID 0000.0001)                   F
(PID.TID 0000.0001)     ;
(PID.TID 0000.0001) useAbsVorticity= /* V.I Works with f+zeta in Coriolis */
(PID.TID 0000.0001)                   F
(PID.TID 0000.0001)     ;
(PID.TID 0000.0001) selectVortScheme= /* V.I Scheme selector for Vorticity-Term */
(PID.TID 0000.0001)                       1
(PID.TID 0000.0001)    = 0 : enstrophy (Shallow-Water Eq.) conserving scheme by Sadourny, JAS 75
(PID.TID 0000.0001)    = 1 : same as 0 with modified hFac
(PID.TID 0000.0001)    = 2 : energy conserving scheme (used by Sadourny in JAS 75 paper)
(PID.TID 0000.0001)    = 3 : energy (general) and enstrophy (2D, nonDiv.) conserving scheme
(PID.TID 0000.0001)          from Sadourny (Burridge & Haseler, ECMWF Rep.4, 1977)
(PID.TID 0000.0001)     ;
(PID.TID 0000.0001) upwindVorticity= /* V.I Upwind bias vorticity flag */
(PID.TID 0000.0001)                   F
(PID.TID 0000.0001)     ;
(PID.TID 0000.0001) highOrderVorticity= /* V.I High order vort. advect. flag */
(PID.TID 0000.0001)                   F
(PID.TID 0000.0001)     ;
(PID.TID 0000.0001) upwindShear= /* V.I Upwind vertical Shear advection flag */
(PID.TID 0000.0001)                   F
(PID.TID 0000.0001)     ;
(PID.TID 0000.0001) selectKEscheme= /* V.I Kinetic Energy scheme selector */
(PID.TID 0000.0001)                       0
(PID.TID 0000.0001)     ;
(PID.TID 0000.0001) momForcing =  /* Momentum forcing on/off flag */
(PID.TID 0000.0001)                   T
(PID.TID 0000.0001)     ;
(PID.TID 0000.0001) momPressureForcing =  /* Momentum pressure term on/off flag */
(PID.TID 0000.0001)                   T
(PID.TID 0000.0001)     ;
(PID.TID 0000.0001) implicitIntGravWave= /* Implicit Internal Gravity Wave flag */
(PID.TID 0000.0001)                   F
(PID.TID 0000.0001)     ;
(PID.TID 0000.0001) staggerTimeStep =    /* Stagger time stepping on/off flag */
(PID.TID 0000.0001)                   T
(PID.TID 0000.0001)     ;
(PID.TID 0000.0001) doResetHFactors = /* reset thickness factors @ each time-step */
(PID.TID 0000.0001)                   T
(PID.TID 0000.0001)     ;
(PID.TID 0000.0001) multiDimAdvection =  /* enable/disable Multi-Dim Advection */
(PID.TID 0000.0001)                   T
(PID.TID 0000.0001)     ;
(PID.TID 0000.0001) useMultiDimAdvec =   /* Multi-Dim Advection is/is-not used */
(PID.TID 0000.0001)                   T
(PID.TID 0000.0001)     ;
(PID.TID 0000.0001) implicitDiffusion = /* Implicit Diffusion on/off flag */
(PID.TID 0000.0001)                   T
(PID.TID 0000.0001)     ;
(PID.TID 0000.0001) tempStepping =  /* Temperature equation on/off flag */
(PID.TID 0000.0001)                   T
(PID.TID 0000.0001)     ;
(PID.TID 0000.0001) tempAdvection = /* Temperature advection on/off flag */
(PID.TID 0000.0001)                   T
(PID.TID 0000.0001)     ;
(PID.TID 0000.0001) tempImplVertAdv = /* Temp. implicit vert. advection on/off */
(PID.TID 0000.0001)                   T
(PID.TID 0000.0001)     ;
(PID.TID 0000.0001) tempForcing  =  /* Temperature forcing on/off flag */
(PID.TID 0000.0001)                   T
(PID.TID 0000.0001)     ;
(PID.TID 0000.0001) balanceQnet  =  /* balance net heat-flux on/off flag */
(PID.TID 0000.0001)                   F
(PID.TID 0000.0001)     ;
(PID.TID 0000.0001) doThetaClimRelax = /* apply SST relaxation on/off flag */
(PID.TID 0000.0001)                   F
(PID.TID 0000.0001)     ;
(PID.TID 0000.0001) balanceThetaClimRelax= /* balance SST relaxation on/off flag */
(PID.TID 0000.0001)                   F
(PID.TID 0000.0001)     ;
(PID.TID 0000.0001) tempIsActiveTr = /* Temp. is a dynamically Active Tracer */
(PID.TID 0000.0001)                   T
(PID.TID 0000.0001)     ;
(PID.TID 0000.0001) saltStepping =  /* Salinity equation on/off flag */
(PID.TID 0000.0001)                   T
(PID.TID 0000.0001)     ;
(PID.TID 0000.0001) saltAdvection = /* Salinity advection on/off flag */
(PID.TID 0000.0001)                   T
(PID.TID 0000.0001)     ;
(PID.TID 0000.0001) saltImplVertAdv = /* Sali. implicit vert. advection on/off */
(PID.TID 0000.0001)                   T
(PID.TID 0000.0001)     ;
(PID.TID 0000.0001) saltForcing  =  /* Salinity forcing on/off flag */
(PID.TID 0000.0001)                   T
(PID.TID 0000.0001)     ;
(PID.TID 0000.0001) balanceEmPmR =  /* balance net fresh-water flux on/off flag */
(PID.TID 0000.0001)                   F
(PID.TID 0000.0001)     ;
(PID.TID 0000.0001) doSaltClimRelax = /* apply SSS relaxation on/off flag */
(PID.TID 0000.0001)                   T
(PID.TID 0000.0001)     ;
(PID.TID 0000.0001) balanceSaltClimRelax= /* balance SSS relaxation on/off flag */
(PID.TID 0000.0001)                   T
(PID.TID 0000.0001)     ;
(PID.TID 0000.0001) saltIsActiveTr = /* Salt  is a dynamically Active Tracer */
(PID.TID 0000.0001)                   T
(PID.TID 0000.0001)     ;
(PID.TID 0000.0001)  readBinaryPrec = /* Precision used for reading binary files */
(PID.TID 0000.0001)                      32
(PID.TID 0000.0001)     ;
(PID.TID 0000.0001) writeBinaryPrec = /* Precision used for writing binary files */
(PID.TID 0000.0001)                      32
(PID.TID 0000.0001)     ;
(PID.TID 0000.0001)  globalFiles = /* write "global" (=not per tile) files */
(PID.TID 0000.0001)                   F
(PID.TID 0000.0001)     ;
(PID.TID 0000.0001)  useSingleCpuIO = /* only master MPI process does I/O */
(PID.TID 0000.0001)                   T
(PID.TID 0000.0001)     ;
(PID.TID 0000.0001) /* debLev[*]  : level of debug & auxiliary message printing */
(PID.TID 0000.0001) debLevZero =  0 ; /* level of disabled aux. msg printing */
(PID.TID 0000.0001)    debLevA =  1 ; /* level of minimum  aux. msg printing */
(PID.TID 0000.0001)    debLevB =  2 ; /* level of low aux. print (report read-file opening)*/
(PID.TID 0000.0001)    debLevC =  3 ; /* level of moderate debug prt (most pkgs debug msg) */
(PID.TID 0000.0001)    debLevD =  4 ; /* level of enhanced debug prt (add DEBUG_STATS prt) */
(PID.TID 0000.0001)    debLevE =  5 ; /* level of extensive debug printing */
(PID.TID 0000.0001) debugLevel =  /* select debug printing level */
(PID.TID 0000.0001)                       1
(PID.TID 0000.0001)     ;
(PID.TID 0000.0001) //
(PID.TID 0000.0001) // Elliptic solver(s) paramters ( PARM02 in namelist )
(PID.TID 0000.0001) //
(PID.TID 0000.0001) cg2dMaxIters =   /* Upper limit on 2d con. grad iterations  */
(PID.TID 0000.0001)                     300
(PID.TID 0000.0001)     ;
(PID.TID 0000.0001) cg2dChkResFreq =   /* 2d con. grad convergence test frequency */
(PID.TID 0000.0001)                       1
(PID.TID 0000.0001)     ;
(PID.TID 0000.0001) cg2dUseMinResSol= /* use cg2d last-iter(=0) / min-resid.(=1) solution */
(PID.TID 0000.0001)                       0
(PID.TID 0000.0001)     ;
(PID.TID 0000.0001) cg2dTargetResidual =   /* 2d con. grad target residual  */
(PID.TID 0000.0001)                 1.000000000000000E-07
(PID.TID 0000.0001)     ;
(PID.TID 0000.0001) cg2dTargetResWunit =   /* CG2d target residual [W units] */
(PID.TID 0000.0001)                 1.000000000000000E-12
(PID.TID 0000.0001)     ;
(PID.TID 0000.0001) cg2dPreCondFreq =   /* Freq. for updating cg2d preconditioner */
(PID.TID 0000.0001)                       1
(PID.TID 0000.0001)     ;
(PID.TID 0000.0001) useSRCGSolver =  /* use single reduction CG solver(s) */
(PID.TID 0000.0001)                   F
(PID.TID 0000.0001)     ;
(PID.TID 0000.0001) printResidualFreq = /* Freq. for printing CG residual */
(PID.TID 0000.0001)                       0
(PID.TID 0000.0001)     ;
(PID.TID 0000.0001) //
(PID.TID 0000.0001) // Time stepping paramters ( PARM03 in namelist )
(PID.TID 0000.0001) //
(PID.TID 0000.0001) deltaTMom =   /* Momentum equation timestep ( s ) */
(PID.TID 0000.0001)                 3.600000000000000E+03
(PID.TID 0000.0001)     ;
(PID.TID 0000.0001) deltaTFreeSurf = /* FreeSurface equation timestep ( s ) */
(PID.TID 0000.0001)                 3.600000000000000E+03
(PID.TID 0000.0001)     ;
(PID.TID 0000.0001) dTtracerLev =  /* Tracer equation timestep ( s ) */
(PID.TID 0000.0001)    50 @  3.600000000000000E+03              /* K =  1: 50 */
(PID.TID 0000.0001)     ;
(PID.TID 0000.0001) deltaTClock  =   /* Model clock timestep ( s ) */
(PID.TID 0000.0001)                 3.600000000000000E+03
(PID.TID 0000.0001)     ;
(PID.TID 0000.0001) cAdjFreq =   /* Convective adjustment interval ( s ) */
(PID.TID 0000.0001)                 0.000000000000000E+00
(PID.TID 0000.0001)     ;
(PID.TID 0000.0001) momForcingOutAB = /* =1: take Momentum Forcing out of Adams-Bash. stepping */
(PID.TID 0000.0001)                       1
(PID.TID 0000.0001)     ;
(PID.TID 0000.0001) tracForcingOutAB = /* =1: take T,S,pTr Forcing out of Adams-Bash. stepping */
(PID.TID 0000.0001)                       1
(PID.TID 0000.0001)     ;
(PID.TID 0000.0001) momDissip_In_AB = /* put Dissipation Tendency in Adams-Bash. stepping */
(PID.TID 0000.0001)                   F
(PID.TID 0000.0001)     ;
(PID.TID 0000.0001) doAB_onGtGs = /* apply AB on Tendencies (rather than on T,S)*/
(PID.TID 0000.0001)                   F
(PID.TID 0000.0001)     ;
(PID.TID 0000.0001) abEps =   /* Adams-Bashforth-2 stabilizing weight */
(PID.TID 0000.0001)                 1.000000000000000E-02
(PID.TID 0000.0001)     ;
(PID.TID 0000.0001) alph_AB =   /* Adams-Bashforth-3 primary factor */
(PID.TID 0000.0001)                 5.000000000000000E-01
(PID.TID 0000.0001)     ;
(PID.TID 0000.0001) beta_AB =   /* Adams-Bashforth-3 secondary factor */
(PID.TID 0000.0001)                 2.811050000000000E-01
(PID.TID 0000.0001)     ;
(PID.TID 0000.0001) startFromPickupAB2= /* start from AB-2 pickup */
(PID.TID 0000.0001)                   F
(PID.TID 0000.0001)     ;
(PID.TID 0000.0001) pickupStrictlyMatch= /* stop if pickup do not strictly match */
(PID.TID 0000.0001)                   F
(PID.TID 0000.0001)     ;
(PID.TID 0000.0001) nIter0   =   /* Run starting timestep number */
(PID.TID 0000.0001)                       0
(PID.TID 0000.0001)     ;
(PID.TID 0000.0001) nTimeSteps = /* Number of timesteps */
(PID.TID 0000.0001)                       8
(PID.TID 0000.0001)     ;
(PID.TID 0000.0001) nEndIter =   /* Run ending timestep number */
(PID.TID 0000.0001)                       8
(PID.TID 0000.0001)     ;
(PID.TID 0000.0001) baseTime =   /* Model base time ( s ) */
(PID.TID 0000.0001)                 0.000000000000000E+00
(PID.TID 0000.0001)     ;
(PID.TID 0000.0001) startTime =  /* Run start time ( s ) */
(PID.TID 0000.0001)                 0.000000000000000E+00
(PID.TID 0000.0001)     ;
(PID.TID 0000.0001) endTime  =   /* Integration ending time ( s ) */
(PID.TID 0000.0001)                 2.880000000000000E+04
(PID.TID 0000.0001)     ;
(PID.TID 0000.0001) pChkPtFreq = /* Permanent restart/pickup file interval ( s ) */
(PID.TID 0000.0001)                 3.153600000000000E+07
(PID.TID 0000.0001)     ;
(PID.TID 0000.0001) chkPtFreq  = /* Rolling restart/pickup file interval ( s ) */
(PID.TID 0000.0001)                 3.153600000000000E+07
(PID.TID 0000.0001)     ;
(PID.TID 0000.0001) pickup_write_mdsio =   /* Model IO flag. */
(PID.TID 0000.0001)                   T
(PID.TID 0000.0001)     ;
(PID.TID 0000.0001) pickup_read_mdsio =   /* Model IO flag. */
(PID.TID 0000.0001)                   T
(PID.TID 0000.0001)     ;
(PID.TID 0000.0001) pickup_write_immed =   /* Model IO flag. */
(PID.TID 0000.0001)                   F
(PID.TID 0000.0001)     ;
(PID.TID 0000.0001) writePickupAtEnd =   /* Model IO flag. */
(PID.TID 0000.0001)                   T
(PID.TID 0000.0001)     ;
(PID.TID 0000.0001) dumpFreq =   /* Model state write out interval ( s ). */
(PID.TID 0000.0001)                 0.000000000000000E+00
(PID.TID 0000.0001)     ;
(PID.TID 0000.0001) dumpInitAndLast= /* write out Initial & Last iter. model state */
(PID.TID 0000.0001)                   T
(PID.TID 0000.0001)     ;
(PID.TID 0000.0001) snapshot_mdsio =   /* Model IO flag. */
(PID.TID 0000.0001)                   T
(PID.TID 0000.0001)     ;
(PID.TID 0000.0001) monitorFreq =   /* Monitor output interval ( s ). */
(PID.TID 0000.0001)                 7.200000000000000E+03
(PID.TID 0000.0001)     ;
(PID.TID 0000.0001) monitorSelect = /* select group of variables to monitor */
(PID.TID 0000.0001)                       3
(PID.TID 0000.0001)     ;
(PID.TID 0000.0001) monitor_stdio =   /* Model IO flag. */
(PID.TID 0000.0001)                   T
(PID.TID 0000.0001)     ;
(PID.TID 0000.0001) externForcingPeriod =   /* forcing period (s) */
(PID.TID 0000.0001)                 0.000000000000000E+00
(PID.TID 0000.0001)     ;
(PID.TID 0000.0001) externForcingCycle =   /* period of the cyle (s). */
(PID.TID 0000.0001)                 0.000000000000000E+00
(PID.TID 0000.0001)     ;
(PID.TID 0000.0001) tauThetaClimRelax =   /* relaxation time scale (s) */
(PID.TID 0000.0001)                 0.000000000000000E+00
(PID.TID 0000.0001)     ;
(PID.TID 0000.0001) tauSaltClimRelax =   /* relaxation time scale (s) */
(PID.TID 0000.0001)                 2.592000000000000E+07
(PID.TID 0000.0001)     ;
(PID.TID 0000.0001) latBandClimRelax =   /* max. Lat. where relaxation */
(PID.TID 0000.0001)                 1.800000000000000E+02
(PID.TID 0000.0001)     ;
(PID.TID 0000.0001) //
(PID.TID 0000.0001) // Gridding paramters ( PARM04 in namelist )
(PID.TID 0000.0001) //
(PID.TID 0000.0001) usingCartesianGrid = /* Cartesian coordinates flag ( True/False ) */
(PID.TID 0000.0001)                   F
(PID.TID 0000.0001)     ;
(PID.TID 0000.0001) usingCylindricalGrid = /* Cylindrical coordinates flag ( True/False ) */
(PID.TID 0000.0001)                   F
(PID.TID 0000.0001)     ;
(PID.TID 0000.0001) usingSphericalPolarGrid = /* Spherical coordinates flag ( True/False ) */
(PID.TID 0000.0001)                   F
(PID.TID 0000.0001)     ;
(PID.TID 0000.0001) usingCurvilinearGrid = /* Curvilinear coordinates flag ( True/False ) */
(PID.TID 0000.0001)                   T
(PID.TID 0000.0001)     ;
(PID.TID 0000.0001) selectSigmaCoord = /* Hybrid-Sigma Vert. Coordinate option */
(PID.TID 0000.0001)                       0
(PID.TID 0000.0001)     ;
(PID.TID 0000.0001) Ro_SeaLevel = /* r(1) ( units of r ==  m ) */
(PID.TID 0000.0001)                 0.000000000000000E+00
(PID.TID 0000.0001)     ;
(PID.TID 0000.0001) rSigmaBnd = /* r/sigma transition ( units of r ==  m ) */
(PID.TID 0000.0001)                 1.234567000000000E+05
(PID.TID 0000.0001)     ;
(PID.TID 0000.0001) rkSign =   /* index orientation relative to vertical coordinate */
(PID.TID 0000.0001)                -1.000000000000000E+00
(PID.TID 0000.0001)     ;
(PID.TID 0000.0001) gravitySign = /* gravity orientation relative to vertical coordinate */
(PID.TID 0000.0001)                -1.000000000000000E+00
(PID.TID 0000.0001)     ;
(PID.TID 0000.0001) mass2rUnit = /* convert mass per unit area [kg/m2] to r-units [m] */
(PID.TID 0000.0001)                 9.718172983479105E-04
(PID.TID 0000.0001)     ;
(PID.TID 0000.0001) rUnit2mass = /* convert r-units [m] to mass per unit area [kg/m2] */
(PID.TID 0000.0001)                 1.029000000000000E+03
(PID.TID 0000.0001)     ;
(PID.TID 0000.0001) drC =   /* C spacing ( units of r ) */
(PID.TID 0000.0001)                 5.000000000000000E+00,      /* K =  1 */
(PID.TID 0000.0001)     6 @  1.000000000000000E+01,             /* K =  2:  7 */
(PID.TID 0000.0001)                 1.000500000000000E+01,      /* K =  8 */
(PID.TID 0000.0001)                 1.002000000000000E+01,      /* K =  9 */
(PID.TID 0000.0001)                 1.007000000000000E+01,      /* K = 10 */
(PID.TID 0000.0001)                 1.021500000000000E+01,      /* K = 11 */
(PID.TID 0000.0001)                 1.056000000000000E+01,      /* K = 12 */
(PID.TID 0000.0001)                 1.128000000000000E+01,      /* K = 13 */
(PID.TID 0000.0001)                 1.259000000000000E+01,      /* K = 14 */
(PID.TID 0000.0001)                 1.473000000000000E+01,      /* K = 15 */
(PID.TID 0000.0001)                 1.793000000000000E+01,      /* K = 16 */
(PID.TID 0000.0001)                 2.233500000000000E+01,      /* K = 17 */
(PID.TID 0000.0001)                 2.797500000000000E+01,      /* K = 18 */
(PID.TID 0000.0001)                 3.476000000000001E+01,      /* K = 19 */
(PID.TID 0000.0001)                 4.246000000000000E+01,      /* K = 20 */
(PID.TID 0000.0001)                 5.075000000000000E+01,      /* K = 21 */
(PID.TID 0000.0001)                 5.925000000000000E+01,      /* K = 22 */
(PID.TID 0000.0001)                 6.753999999999999E+01,      /* K = 23 */
(PID.TID 0000.0001)                 7.524000000000001E+01,      /* K = 24 */
(PID.TID 0000.0001)                 8.202500000000001E+01,      /* K = 25 */
(PID.TID 0000.0001)                 8.766500000000001E+01,      /* K = 26 */
(PID.TID 0000.0001)                 9.206999999999999E+01,      /* K = 27 */
(PID.TID 0000.0001)                 9.527000000000000E+01,      /* K = 28 */
(PID.TID 0000.0001)                 9.741499999999999E+01,      /* K = 29 */
(PID.TID 0000.0001)                 9.875000000000000E+01,      /* K = 30 */
(PID.TID 0000.0001)                 9.963000000000000E+01,      /* K = 31 */
(PID.TID 0000.0001)                 1.006700000000000E+02,      /* K = 32 */
(PID.TID 0000.0001)                 1.029450000000000E+02,      /* K = 33 */
(PID.TID 0000.0001)                 1.079450000000000E+02,      /* K = 34 */
(PID.TID 0000.0001)                 1.170800000000000E+02,      /* K = 35 */
(PID.TID 0000.0001)                 1.309600000000000E+02,      /* K = 36 */
(PID.TID 0000.0001)                 1.490150000000000E+02,      /* K = 37 */
(PID.TID 0000.0001)                 1.698850000000000E+02,      /* K = 38 */
(PID.TID 0000.0001)                 1.921900000000000E+02,      /* K = 39 */
(PID.TID 0000.0001)                 2.150250000000000E+02,      /* K = 40 */
(PID.TID 0000.0001)                 2.380000000000000E+02,      /* K = 41 */
(PID.TID 0000.0001)                 2.610000000000000E+02,      /* K = 42 */
(PID.TID 0000.0001)                 2.840000000000000E+02,      /* K = 43 */
(PID.TID 0000.0001)                 3.070000000000000E+02,      /* K = 44 */
(PID.TID 0000.0001)                 3.300000000000000E+02,      /* K = 45 */
(PID.TID 0000.0001)                 3.530000000000000E+02,      /* K = 46 */
(PID.TID 0000.0001)                 3.760000000000000E+02,      /* K = 47 */
(PID.TID 0000.0001)                 3.990000000000000E+02,      /* K = 48 */
(PID.TID 0000.0001)                 4.220000000000000E+02,      /* K = 49 */
(PID.TID 0000.0001)                 4.450000000000000E+02,      /* K = 50 */
(PID.TID 0000.0001)                 2.282500000000000E+02       /* K = 51 */
(PID.TID 0000.0001)     ;
(PID.TID 0000.0001) drF =   /* W spacing ( units of r ) */
(PID.TID 0000.0001)     7 @  1.000000000000000E+01,             /* K =  1:  7 */
(PID.TID 0000.0001)                 1.001000000000000E+01,      /* K =  8 */
(PID.TID 0000.0001)                 1.003000000000000E+01,      /* K =  9 */
(PID.TID 0000.0001)                 1.011000000000000E+01,      /* K = 10 */
(PID.TID 0000.0001)                 1.032000000000000E+01,      /* K = 11 */
(PID.TID 0000.0001)                 1.080000000000000E+01,      /* K = 12 */
(PID.TID 0000.0001)                 1.176000000000000E+01,      /* K = 13 */
(PID.TID 0000.0001)                 1.342000000000000E+01,      /* K = 14 */
(PID.TID 0000.0001)                 1.604000000000000E+01,      /* K = 15 */
(PID.TID 0000.0001)                 1.982000000000000E+01,      /* K = 16 */
(PID.TID 0000.0001)                 2.485000000000000E+01,      /* K = 17 */
(PID.TID 0000.0001)                 3.110000000000000E+01,      /* K = 18 */
(PID.TID 0000.0001)                 3.842000000000000E+01,      /* K = 19 */
(PID.TID 0000.0001)                 4.650000000000000E+01,      /* K = 20 */
(PID.TID 0000.0001)                 5.500000000000000E+01,      /* K = 21 */
(PID.TID 0000.0001)                 6.350000000000000E+01,      /* K = 22 */
(PID.TID 0000.0001)                 7.158000000000000E+01,      /* K = 23 */
(PID.TID 0000.0001)                 7.890000000000001E+01,      /* K = 24 */
(PID.TID 0000.0001)                 8.515000000000001E+01,      /* K = 25 */
(PID.TID 0000.0001)                 9.018000000000001E+01,      /* K = 26 */
(PID.TID 0000.0001)                 9.395999999999999E+01,      /* K = 27 */
(PID.TID 0000.0001)                 9.658000000000000E+01,      /* K = 28 */
(PID.TID 0000.0001)                 9.825000000000000E+01,      /* K = 29 */
(PID.TID 0000.0001)                 9.925000000000000E+01,      /* K = 30 */
(PID.TID 0000.0001)                 1.000100000000000E+02,      /* K = 31 */
(PID.TID 0000.0001)                 1.013300000000000E+02,      /* K = 32 */
(PID.TID 0000.0001)                 1.045600000000000E+02,      /* K = 33 */
(PID.TID 0000.0001)                 1.113300000000000E+02,      /* K = 34 */
(PID.TID 0000.0001)                 1.228300000000000E+02,      /* K = 35 */
(PID.TID 0000.0001)                 1.390900000000000E+02,      /* K = 36 */
(PID.TID 0000.0001)                 1.589400000000000E+02,      /* K = 37 */
(PID.TID 0000.0001)                 1.808300000000000E+02,      /* K = 38 */
(PID.TID 0000.0001)                 2.035500000000000E+02,      /* K = 39 */
(PID.TID 0000.0001)                 2.265000000000000E+02,      /* K = 40 */
(PID.TID 0000.0001)                 2.495000000000000E+02,      /* K = 41 */
(PID.TID 0000.0001)                 2.725000000000000E+02,      /* K = 42 */
(PID.TID 0000.0001)                 2.955000000000000E+02,      /* K = 43 */
(PID.TID 0000.0001)                 3.185000000000000E+02,      /* K = 44 */
(PID.TID 0000.0001)                 3.415000000000000E+02,      /* K = 45 */
(PID.TID 0000.0001)                 3.645000000000000E+02,      /* K = 46 */
(PID.TID 0000.0001)                 3.875000000000000E+02,      /* K = 47 */
(PID.TID 0000.0001)                 4.105000000000000E+02,      /* K = 48 */
(PID.TID 0000.0001)                 4.335000000000000E+02,      /* K = 49 */
(PID.TID 0000.0001)                 4.565000000000000E+02       /* K = 50 */
(PID.TID 0000.0001)     ;
(PID.TID 0000.0001) radius_fromHorizGrid = /* sphere Radius of input horiz. grid */
(PID.TID 0000.0001)                 6.370000000000000E+06
(PID.TID 0000.0001)     ;
(PID.TID 0000.0001) rSphere =  /* Radius ( ignored - cartesian, m - spherical ) */
(PID.TID 0000.0001)                 6.370000000000000E+06
(PID.TID 0000.0001)     ;
(PID.TID 0000.0001) deepAtmosphere = /* Deep/Shallow Atmosphere flag (True/False) */
(PID.TID 0000.0001)                   F
(PID.TID 0000.0001)     ;
(PID.TID 0000.0001) xC =  /* xC(:,1,:,1) : P-point X coord ( deg. or m if cartesian) */
(PID.TID 0000.0001)                -4.439521994760536E+01,      /* I =  1 */
(PID.TID 0000.0001)                -4.295641272275883E+01,      /* I =  2 */
(PID.TID 0000.0001)                -4.122055553388957E+01,      /* I =  3 */
(PID.TID 0000.0001)      . . .
(PID.TID 0000.0001)                 1.312205555338896E+02,      /* I = 94 */
(PID.TID 0000.0001)                 1.329564127227588E+02,      /* I = 95 */
(PID.TID 0000.0001)                 1.343952199476053E+02,      /* I = 96 */
(PID.TID 0000.0001)                 4.635509675007168E+01,      /* I = 97 */
(PID.TID 0000.0001)                 4.906731228843647E+01,      /* I = 98 */
(PID.TID 0000.0001)                 5.178550688214704E+01,      /* I = 99 */
(PID.TID 0000.0001)      . . .
(PID.TID 0000.0001)                -1.778001716525716E+02,      /* I =190 */
(PID.TID 0000.0001)                -1.779288225675308E+02,      /* I =191 */
(PID.TID 0000.0001)                -1.780367200854751E+02,      /* I =192 */
(PID.TID 0000.0001)                 1.356047800523947E+02,      /* I =193 */
(PID.TID 0000.0001)                 1.358367907661329E+02,      /* I =194 */
(PID.TID 0000.0001)                 1.359720382181193E+02,      /* I =195 */
(PID.TID 0000.0001)      . . .
(PID.TID 0000.0001)                -1.340279617818807E+02,      /* I =286 */
(PID.TID 0000.0001)                -1.341632092338671E+02,      /* I =287 */
(PID.TID 0000.0001)                -1.343952199476053E+02,      /* I =288 */
(PID.TID 0000.0001)                -8.812739148696656E+01,      /* I =289 */
(PID.TID 0000.0001)                -8.820362659721324E+01,      /* I =290 */
(PID.TID 0000.0001)                -8.826768106944316E+01,      /* I =291 */
(PID.TID 0000.0001)      . . .
(PID.TID 0000.0001)                 8.780017165257156E+01,      /* I =382 */
(PID.TID 0000.0001)                 8.792882256753080E+01,      /* I =383 */
(PID.TID 0000.0001)                 8.803672008547504E+01       /* I =384 */
(PID.TID 0000.0001)     ;
(PID.TID 0000.0001) yC =  /* yC(1,:,1,:) : P-point Y coord ( deg. or m if cartesian) */
(PID.TID 0000.0001)                -3.497677942598243E+01,      /* J =  1 */
(PID.TID 0000.0001)                -3.374005967394886E+01,      /* J =  2 */
(PID.TID 0000.0001)                -3.220655175667454E+01,      /* J =  3 */
(PID.TID 0000.0001)                -3.045756348838641E+01,      /* J =  4 */
(PID.TID 0000.0001)                -2.853728129852918E+01,      /* J =  5 */
(PID.TID 0000.0001)                -2.647426640173173E+01,      /* J =  6 */
(PID.TID 0000.0001)                -2.428936657094636E+01,      /* J =  7 */
(PID.TID 0000.0001)                -2.199915808312262E+01,      /* J =  8 */
(PID.TID 0000.0001)                -1.961768597440146E+01,      /* J =  9 */
(PID.TID 0000.0001)                -1.715743888281371E+01,      /* J = 10 */
(PID.TID 0000.0001)                -1.462993396899330E+01,      /* J = 11 */
(PID.TID 0000.0001)                -1.204608340464756E+01,      /* J = 12 */
(PID.TID 0000.0001)                -9.416429130284818E+00,      /* J = 13 */
(PID.TID 0000.0001)                -6.751293662992216E+00,      /* J = 14 */
(PID.TID 0000.0001)                -4.060875511835959E+00,      /* J = 15 */
(PID.TID 0000.0001)                -1.355307764409121E+00       /* J = 16 */
(PID.TID 0000.0001)     ;
(PID.TID 0000.0001) rcoord = /* P-point R coordinate (  units of r ) */
(PID.TID 0000.0001)                -5.000000000000000E+00,      /* K =  1 */
(PID.TID 0000.0001)                -1.500000000000000E+01,      /* K =  2 */
(PID.TID 0000.0001)                -2.500000000000000E+01,      /* K =  3 */
(PID.TID 0000.0001)                -3.500000000000000E+01,      /* K =  4 */
(PID.TID 0000.0001)                -4.500000000000000E+01,      /* K =  5 */
(PID.TID 0000.0001)                -5.500000000000000E+01,      /* K =  6 */
(PID.TID 0000.0001)                -6.500000000000000E+01,      /* K =  7 */
(PID.TID 0000.0001)                -7.500500000000000E+01,      /* K =  8 */
(PID.TID 0000.0001)                -8.502499999999999E+01,      /* K =  9 */
(PID.TID 0000.0001)                -9.509500000000000E+01,      /* K = 10 */
(PID.TID 0000.0001)                -1.053100000000000E+02,      /* K = 11 */
(PID.TID 0000.0001)                -1.158700000000000E+02,      /* K = 12 */
(PID.TID 0000.0001)                -1.271500000000000E+02,      /* K = 13 */
(PID.TID 0000.0001)                -1.397400000000000E+02,      /* K = 14 */
(PID.TID 0000.0001)                -1.544700000000000E+02,      /* K = 15 */
(PID.TID 0000.0001)                -1.724000000000000E+02,      /* K = 16 */
(PID.TID 0000.0001)                -1.947350000000000E+02,      /* K = 17 */
(PID.TID 0000.0001)                -2.227100000000000E+02,      /* K = 18 */
(PID.TID 0000.0001)                -2.574700000000000E+02,      /* K = 19 */
(PID.TID 0000.0001)                -2.999300000000000E+02,      /* K = 20 */
(PID.TID 0000.0001)                -3.506800000000000E+02,      /* K = 21 */
(PID.TID 0000.0001)                -4.099300000000000E+02,      /* K = 22 */
(PID.TID 0000.0001)                -4.774700000000000E+02,      /* K = 23 */
(PID.TID 0000.0001)                -5.527100000000000E+02,      /* K = 24 */
(PID.TID 0000.0001)                -6.347350000000000E+02,      /* K = 25 */
(PID.TID 0000.0001)                -7.224000000000000E+02,      /* K = 26 */
(PID.TID 0000.0001)                -8.144700000000000E+02,      /* K = 27 */
(PID.TID 0000.0001)                -9.097400000000000E+02,      /* K = 28 */
(PID.TID 0000.0001)                -1.007155000000000E+03,      /* K = 29 */
(PID.TID 0000.0001)                -1.105905000000000E+03,      /* K = 30 */
(PID.TID 0000.0001)                -1.205535000000000E+03,      /* K = 31 */
(PID.TID 0000.0001)                -1.306205000000000E+03,      /* K = 32 */
(PID.TID 0000.0001)                -1.409150000000000E+03,      /* K = 33 */
(PID.TID 0000.0001)                -1.517095000000000E+03,      /* K = 34 */
(PID.TID 0000.0001)                -1.634175000000000E+03,      /* K = 35 */
(PID.TID 0000.0001)                -1.765135000000000E+03,      /* K = 36 */
(PID.TID 0000.0001)                -1.914150000000000E+03,      /* K = 37 */
(PID.TID 0000.0001)                -2.084035000000000E+03,      /* K = 38 */
(PID.TID 0000.0001)                -2.276225000000000E+03,      /* K = 39 */
(PID.TID 0000.0001)                -2.491250000000000E+03,      /* K = 40 */
(PID.TID 0000.0001)                -2.729250000000000E+03,      /* K = 41 */
(PID.TID 0000.0001)                -2.990250000000000E+03,      /* K = 42 */
(PID.TID 0000.0001)                -3.274250000000000E+03,      /* K = 43 */
(PID.TID 0000.0001)                -3.581250000000000E+03,      /* K = 44 */
(PID.TID 0000.0001)                -3.911250000000000E+03,      /* K = 45 */
(PID.TID 0000.0001)                -4.264250000000000E+03,      /* K = 46 */
(PID.TID 0000.0001)                -4.640250000000000E+03,      /* K = 47 */
(PID.TID 0000.0001)                -5.039250000000000E+03,      /* K = 48 */
(PID.TID 0000.0001)                -5.461250000000000E+03,      /* K = 49 */
(PID.TID 0000.0001)                -5.906250000000000E+03       /* K = 50 */
(PID.TID 0000.0001)     ;
(PID.TID 0000.0001) rF =   /* W-Interf. R coordinate (  units of r ) */
(PID.TID 0000.0001)                 0.000000000000000E+00,      /* K =  1 */
(PID.TID 0000.0001)                -1.000000000000000E+01,      /* K =  2 */
(PID.TID 0000.0001)                -2.000000000000000E+01,      /* K =  3 */
(PID.TID 0000.0001)                -3.000000000000000E+01,      /* K =  4 */
(PID.TID 0000.0001)                -4.000000000000000E+01,      /* K =  5 */
(PID.TID 0000.0001)                -5.000000000000000E+01,      /* K =  6 */
(PID.TID 0000.0001)                -6.000000000000000E+01,      /* K =  7 */
(PID.TID 0000.0001)                -7.000000000000000E+01,      /* K =  8 */
(PID.TID 0000.0001)                -8.001000000000001E+01,      /* K =  9 */
(PID.TID 0000.0001)                -9.004000000000001E+01,      /* K = 10 */
(PID.TID 0000.0001)                -1.001500000000000E+02,      /* K = 11 */
(PID.TID 0000.0001)                -1.104700000000000E+02,      /* K = 12 */
(PID.TID 0000.0001)                -1.212700000000000E+02,      /* K = 13 */
(PID.TID 0000.0001)                -1.330300000000000E+02,      /* K = 14 */
(PID.TID 0000.0001)                -1.464500000000000E+02,      /* K = 15 */
(PID.TID 0000.0001)                -1.624900000000000E+02,      /* K = 16 */
(PID.TID 0000.0001)                -1.823100000000000E+02,      /* K = 17 */
(PID.TID 0000.0001)                -2.071600000000000E+02,      /* K = 18 */
(PID.TID 0000.0001)                -2.382600000000000E+02,      /* K = 19 */
(PID.TID 0000.0001)                -2.766799999999999E+02,      /* K = 20 */
(PID.TID 0000.0001)                -3.231799999999999E+02,      /* K = 21 */
(PID.TID 0000.0001)                -3.781799999999999E+02,      /* K = 22 */
(PID.TID 0000.0001)                -4.416799999999999E+02,      /* K = 23 */
(PID.TID 0000.0001)                -5.132600000000000E+02,      /* K = 24 */
(PID.TID 0000.0001)                -5.921600000000000E+02,      /* K = 25 */
(PID.TID 0000.0001)                -6.773099999999999E+02,      /* K = 26 */
(PID.TID 0000.0001)                -7.674900000000000E+02,      /* K = 27 */
(PID.TID 0000.0001)                -8.614500000000000E+02,      /* K = 28 */
(PID.TID 0000.0001)                -9.580300000000001E+02,      /* K = 29 */
(PID.TID 0000.0001)                -1.056280000000000E+03,      /* K = 30 */
(PID.TID 0000.0001)                -1.155530000000000E+03,      /* K = 31 */
(PID.TID 0000.0001)                -1.255540000000000E+03,      /* K = 32 */
(PID.TID 0000.0001)                -1.356870000000000E+03,      /* K = 33 */
(PID.TID 0000.0001)                -1.461430000000000E+03,      /* K = 34 */
(PID.TID 0000.0001)                -1.572760000000000E+03,      /* K = 35 */
(PID.TID 0000.0001)                -1.695590000000000E+03,      /* K = 36 */
(PID.TID 0000.0001)                -1.834680000000000E+03,      /* K = 37 */
(PID.TID 0000.0001)                -1.993620000000000E+03,      /* K = 38 */
(PID.TID 0000.0001)                -2.174450000000000E+03,      /* K = 39 */
(PID.TID 0000.0001)                -2.378000000000000E+03,      /* K = 40 */
(PID.TID 0000.0001)                -2.604500000000000E+03,      /* K = 41 */
(PID.TID 0000.0001)                -2.854000000000000E+03,      /* K = 42 */
(PID.TID 0000.0001)                -3.126500000000000E+03,      /* K = 43 */
(PID.TID 0000.0001)                -3.422000000000000E+03,      /* K = 44 */
(PID.TID 0000.0001)                -3.740500000000000E+03,      /* K = 45 */
(PID.TID 0000.0001)                -4.082000000000000E+03,      /* K = 46 */
(PID.TID 0000.0001)                -4.446500000000000E+03,      /* K = 47 */
(PID.TID 0000.0001)                -4.834000000000000E+03,      /* K = 48 */
(PID.TID 0000.0001)                -5.244500000000000E+03,      /* K = 49 */
(PID.TID 0000.0001)                -5.678000000000000E+03,      /* K = 50 */
(PID.TID 0000.0001)                -6.134500000000000E+03       /* K = 51 */
(PID.TID 0000.0001)     ;
(PID.TID 0000.0001) deepFacC = /* deep-model grid factor @ cell-Center (-) */
(PID.TID 0000.0001)    50 @  1.000000000000000E+00              /* K =  1: 50 */
(PID.TID 0000.0001)     ;
(PID.TID 0000.0001) deepFacF = /* deep-model grid factor @ W-Interface (-) */
(PID.TID 0000.0001)    51 @  1.000000000000000E+00              /* K =  1: 51 */
(PID.TID 0000.0001)     ;
(PID.TID 0000.0001) rVel2wUnit = /* convert units: rVel -> wSpeed (=1 if z-coord)*/
(PID.TID 0000.0001)    51 @  1.000000000000000E+00              /* K =  1: 51 */
(PID.TID 0000.0001)     ;
(PID.TID 0000.0001) wUnit2rVel = /* convert units: wSpeed -> rVel (=1 if z-coord)*/
(PID.TID 0000.0001)    51 @  1.000000000000000E+00              /* K =  1: 51 */
(PID.TID 0000.0001)     ;
(PID.TID 0000.0001) dBdrRef = /* Vertical grad. of reference buoyancy [(m/s/r)^2] */
(PID.TID 0000.0001)     3 @  0.000000000000000E+00,             /* K =  1:  3 */
(PID.TID 0000.0001)                 2.706065538651213E-04,      /* K =  4 */
(PID.TID 0000.0001)     2 @  0.000000000000000E+00,             /* K =  5:  6 */
(PID.TID 0000.0001)                 2.632794562663490E-04,      /* K =  7 */
(PID.TID 0000.0001)                 2.554318021231947E-04,      /* K =  8 */
(PID.TID 0000.0001)                 0.000000000000000E+00,      /* K =  9 */
(PID.TID 0000.0001)                 2.461524232360561E-04,      /* K = 10 */
(PID.TID 0000.0001)                 2.348694431245364E-04,      /* K = 11 */
(PID.TID 0000.0001)                 0.000000000000000E+00,      /* K = 12 */
(PID.TID 0000.0001)                 2.056847859884566E-04,      /* K = 13 */
(PID.TID 0000.0001)                 1.777764506003336E-04,      /* K = 14 */
(PID.TID 0000.0001)                 0.000000000000000E+00,      /* K = 15 */
(PID.TID 0000.0001)                 1.203533867077665E-04,      /* K = 16 */
(PID.TID 0000.0001)                 9.288540355629585E-05,      /* K = 17 */
(PID.TID 0000.0001)                 7.115862770365155E-05,      /* K = 18 */
(PID.TID 0000.0001)                 5.484365820533800E-05,      /* K = 19 */
(PID.TID 0000.0001)                 4.290935507113214E-05,      /* K = 20 */
(PID.TID 0000.0001)                 6.658747741703880E-05,      /* K = 21 */
(PID.TID 0000.0001)                 0.000000000000000E+00,      /* K = 22 */
(PID.TID 0000.0001)                 2.323718420342036E-05,      /* K = 23 */
(PID.TID 0000.0001)                 1.974682037962757E-05,      /* K = 24 */
(PID.TID 0000.0001)                 1.709468932536602E-05,      /* K = 25 */
(PID.TID 0000.0001)                 0.000000000000000E+00,      /* K = 26 */
(PID.TID 0000.0001)                 1.455436545977052E-05,      /* K = 27 */
(PID.TID 0000.0001)                 0.000000000000000E+00,      /* K = 28 */
(PID.TID 0000.0001)                 1.315287111980149E-05,      /* K = 29 */
(PID.TID 0000.0001)     2 @  0.000000000000000E+00,             /* K = 30: 31 */
(PID.TID 0000.0001)                 1.240968507885233E-05,      /* K = 32 */
(PID.TID 0000.0001)     2 @  0.000000000000000E+00,             /* K = 33: 34 */
(PID.TID 0000.0001)                 1.045141607964570E-05,      /* K = 35 */
(PID.TID 0000.0001)     3 @  0.000000000000000E+00,             /* K = 36: 38 */
(PID.TID 0000.0001)                 6.628797113709505E-06,      /* K = 39 */
(PID.TID 0000.0001)    11 @  0.000000000000000E+00              /* K = 40: 50 */
(PID.TID 0000.0001)     ;
(PID.TID 0000.0001) rotateGrid = /* use rotated grid ( True/False ) */
(PID.TID 0000.0001)                   F
(PID.TID 0000.0001)     ;
(PID.TID 0000.0001) phiEuler = /* Euler angle, rotation about original z-coordinate [rad] */
(PID.TID 0000.0001)                 0.000000000000000E+00
(PID.TID 0000.0001)     ;
(PID.TID 0000.0001) thetaEuler = /* Euler angle, rotation about new x-coordinate [rad] */
(PID.TID 0000.0001)                 0.000000000000000E+00
(PID.TID 0000.0001)     ;
(PID.TID 0000.0001) psiEuler = /* Euler angle, rotation about new z-coordinate [rad] */
(PID.TID 0000.0001)                 0.000000000000000E+00
(PID.TID 0000.0001)     ;
(PID.TID 0000.0001) dxF =  /* dxF(:,1,:,1) ( units: m ) */
(PID.TID 0000.0001)                 1.202082051331828E+05,      /* I =  1 */
(PID.TID 0000.0001)                 1.563594089971120E+05,      /* I =  2 */
(PID.TID 0000.0001)                 1.835530058121492E+05,      /* I =  3 */
(PID.TID 0000.0001)      . . .
(PID.TID 0000.0001)                 1.835530058121492E+05,      /* I = 94 */
(PID.TID 0000.0001)                 1.563594089971120E+05,      /* I = 95 */
(PID.TID 0000.0001)                 1.202082051331828E+05,      /* I = 96 */
(PID.TID 0000.0001)                 3.012844832048790E+05,      /* I = 97 */
(PID.TID 0000.0001)                 3.017314519159184E+05,      /* I = 98 */
(PID.TID 0000.0001)                 3.026061571839506E+05,      /* I = 99 */
(PID.TID 0000.0001)      . . .
(PID.TID 0000.0001)                 3.026061571839506E+05,      /* I =190 */
(PID.TID 0000.0001)                 3.017314519159184E+05,      /* I =191 */
(PID.TID 0000.0001)                 3.012844832048790E+05,      /* I =192 */
(PID.TID 0000.0001)                 1.202082051331828E+05,      /* I =193 */
(PID.TID 0000.0001)                 1.563594089971120E+05,      /* I =194 */
(PID.TID 0000.0001)                 1.835530058121492E+05,      /* I =195 */
(PID.TID 0000.0001)      . . .
(PID.TID 0000.0001)                 1.835530058121492E+05,      /* I =286 */
(PID.TID 0000.0001)                 1.563594089971120E+05,      /* I =287 */
(PID.TID 0000.0001)                 1.202082051331828E+05,      /* I =288 */
(PID.TID 0000.0001)                 3.012844832048790E+05,      /* I =289 */
(PID.TID 0000.0001)                 3.017314519159184E+05,      /* I =290 */
(PID.TID 0000.0001)                 3.026061571839506E+05,      /* I =291 */
(PID.TID 0000.0001)      . . .
(PID.TID 0000.0001)                 3.026061571839506E+05,      /* I =382 */
(PID.TID 0000.0001)                 3.017314519159184E+05,      /* I =383 */
(PID.TID 0000.0001)                 3.012844832048790E+05       /* I =384 */
(PID.TID 0000.0001)     ;
(PID.TID 0000.0001) dxF =  /* dxF(1,:,1,:) ( units: m ) */
(PID.TID 0000.0001)                 1.202082051331828E+05,      /* J =  1 */
(PID.TID 0000.0001)                 1.572908084538706E+05,      /* J =  2 */
(PID.TID 0000.0001)                 1.840412227747703E+05,      /* J =  3 */
(PID.TID 0000.0001)                 2.048868197919576E+05,      /* J =  4 */
(PID.TID 0000.0001)                 2.220405216043041E+05,      /* J =  5 */
(PID.TID 0000.0001)                 2.365892017348392E+05,      /* J =  6 */
(PID.TID 0000.0001)                 2.491250781852558E+05,      /* J =  7 */
(PID.TID 0000.0001)                 2.599949918261881E+05,      /* J =  8 */
(PID.TID 0000.0001)                 2.694110134598581E+05,      /* J =  9 */
(PID.TID 0000.0001)                 2.775055554645015E+05,      /* J = 10 */
(PID.TID 0000.0001)                 2.843615645344775E+05,      /* J = 11 */
(PID.TID 0000.0001)                 2.900303768613599E+05,      /* J = 12 */
(PID.TID 0000.0001)                 2.945429307892709E+05,      /* J = 13 */
(PID.TID 0000.0001)                 2.979171143158405E+05,      /* J = 14 */
(PID.TID 0000.0001)                 3.001626787528886E+05,      /* J = 15 */
(PID.TID 0000.0001)                 3.012844832048790E+05       /* J = 16 */
(PID.TID 0000.0001)     ;
(PID.TID 0000.0001) dyF =  /* dyF(:,1,:,1) ( units: m ) */
(PID.TID 0000.0001)                 1.202082051331828E+05,      /* I =  1 */
(PID.TID 0000.0001)                 1.572908084538706E+05,      /* I =  2 */
(PID.TID 0000.0001)                 1.840412227747703E+05,      /* I =  3 */
(PID.TID 0000.0001)      . . .
(PID.TID 0000.0001)                 1.840412227747703E+05,      /* I = 94 */
(PID.TID 0000.0001)                 1.572908084538706E+05,      /* I = 95 */
(PID.TID 0000.0001)                 1.202082051331828E+05,      /* I = 96 */
(PID.TID 0000.0001)                 3.012190981969055E+05,      /* I = 97 */
(PID.TID 0000.0001)                 3.016675528553907E+05,      /* I = 98 */
(PID.TID 0000.0001)                 3.025451404065074E+05,      /* I = 99 */
(PID.TID 0000.0001)      . . .
(PID.TID 0000.0001)                 3.025451404065074E+05,      /* I =190 */
(PID.TID 0000.0001)                 3.016675528553907E+05,      /* I =191 */
(PID.TID 0000.0001)                 3.012190981969055E+05,      /* I =192 */
(PID.TID 0000.0001)                 1.202082051331828E+05,      /* I =193 */
(PID.TID 0000.0001)                 1.572908084538706E+05,      /* I =194 */
(PID.TID 0000.0001)                 1.840412227747703E+05,      /* I =195 */
(PID.TID 0000.0001)      . . .
(PID.TID 0000.0001)                 1.840412227747703E+05,      /* I =286 */
(PID.TID 0000.0001)                 1.572908084538706E+05,      /* I =287 */
(PID.TID 0000.0001)                 1.202082051331828E+05,      /* I =288 */
(PID.TID 0000.0001)                 3.012190981969055E+05,      /* I =289 */
(PID.TID 0000.0001)                 3.016675528553907E+05,      /* I =290 */
(PID.TID 0000.0001)                 3.025451404065074E+05,      /* I =291 */
(PID.TID 0000.0001)      . . .
(PID.TID 0000.0001)                 3.025451404065074E+05,      /* I =382 */
(PID.TID 0000.0001)                 3.016675528553907E+05,      /* I =383 */
(PID.TID 0000.0001)                 3.012190981969055E+05       /* I =384 */
(PID.TID 0000.0001)     ;
(PID.TID 0000.0001) dyF =  /* dyF(1,:,1,:) ( units: m ) */
(PID.TID 0000.0001)                 1.202082051331828E+05,      /* J =  1 */
(PID.TID 0000.0001)                 1.563594089971120E+05,      /* J =  2 */
(PID.TID 0000.0001)                 1.835530058121492E+05,      /* J =  3 */
(PID.TID 0000.0001)                 2.045883481718707E+05,      /* J =  4 */
(PID.TID 0000.0001)                 2.218350349844185E+05,      /* J =  5 */
(PID.TID 0000.0001)                 2.364352994647058E+05,      /* J =  6 */
(PID.TID 0000.0001)                 2.490022710862746E+05,      /* J =  7 */
(PID.TID 0000.0001)                 2.598919724358304E+05,      /* J =  8 */
(PID.TID 0000.0001)                 2.693210245495156E+05,      /* J =  9 */
(PID.TID 0000.0001)                 2.774243179696503E+05,      /* J = 10 */
(PID.TID 0000.0001)                 2.842862532064524E+05,      /* J = 11 */
(PID.TID 0000.0001)                 2.899590699694043E+05,      /* J = 12 */
(PID.TID 0000.0001)                 2.944742915095688E+05,      /* J = 13 */
(PID.TID 0000.0001)                 2.978501920522794E+05,      /* J = 14 */
(PID.TID 0000.0001)                 3.000967749619962E+05,      /* J = 15 */
(PID.TID 0000.0001)                 3.012190981969055E+05       /* J = 16 */
(PID.TID 0000.0001)     ;
(PID.TID 0000.0001) dxG =  /* dxG(:,1,:,1) ( units: m ) */
(PID.TID 0000.0001)                 1.009837800879055E+05,      /* I =  1 */
(PID.TID 0000.0001)                 1.534505834330338E+05,      /* I =  2 */
(PID.TID 0000.0001)                 1.823321598773926E+05,      /* I =  3 */
(PID.TID 0000.0001)      . . .
(PID.TID 0000.0001)                 1.823321598773926E+05,      /* I = 94 */
(PID.TID 0000.0001)                 1.534505834330338E+05,      /* I = 95 */
(PID.TID 0000.0001)                 1.009837800879055E+05,      /* I = 96 */
(PID.TID 0000.0001)                 3.014246674484008E+05,      /* I = 97 */
(PID.TID 0000.0001)                 3.018694497480782E+05,      /* I = 98 */
(PID.TID 0000.0001)                 3.027399364062562E+05,      /* I = 99 */
(PID.TID 0000.0001)      . . .
(PID.TID 0000.0001)                 3.027399364062562E+05,      /* I =190 */
(PID.TID 0000.0001)                 3.018694497480782E+05,      /* I =191 */
(PID.TID 0000.0001)                 3.014246674484008E+05,      /* I =192 */
(PID.TID 0000.0001)                 1.009837800879055E+05,      /* I =193 */
(PID.TID 0000.0001)                 1.534505834330338E+05,      /* I =194 */
(PID.TID 0000.0001)                 1.823321598773926E+05,      /* I =195 */
(PID.TID 0000.0001)      . . .
(PID.TID 0000.0001)                 1.823321598773926E+05,      /* I =286 */
(PID.TID 0000.0001)                 1.534505834330338E+05,      /* I =287 */
(PID.TID 0000.0001)                 1.009837800879055E+05,      /* I =288 */
(PID.TID 0000.0001)                 3.014246674484008E+05,      /* I =289 */
(PID.TID 0000.0001)                 3.018694497480782E+05,      /* I =290 */
(PID.TID 0000.0001)                 3.027399364062562E+05,      /* I =291 */
(PID.TID 0000.0001)      . . .
(PID.TID 0000.0001)                 3.027399364062562E+05,      /* I =382 */
(PID.TID 0000.0001)                 3.018694497480782E+05,      /* I =383 */
(PID.TID 0000.0001)                 3.014246674484008E+05       /* I =384 */
(PID.TID 0000.0001)     ;
(PID.TID 0000.0001) dxG =  /* dxG(1,:,1,:) ( units: m ) */
(PID.TID 0000.0001)                 1.009837800879055E+05,      /* J =  1 */
(PID.TID 0000.0001)                 1.403701524205398E+05,      /* J =  2 */
(PID.TID 0000.0001)                 1.716197227386011E+05,      /* J =  3 */
(PID.TID 0000.0001)                 1.950254041626018E+05,      /* J =  4 */
(PID.TID 0000.0001)                 2.138410773065497E+05,      /* J =  5 */
(PID.TID 0000.0001)                 2.295958105911512E+05,      /* J =  6 */
(PID.TID 0000.0001)                 2.430829951739083E+05,      /* J =  7 */
(PID.TID 0000.0001)                 2.547526806712889E+05,      /* J =  8 */
(PID.TID 0000.0001)                 2.648750305193301E+05,      /* J =  9 */
(PID.TID 0000.0001)                 2.736173771018112E+05,      /* J = 10 */
(PID.TID 0000.0001)                 2.810845823202647E+05,      /* J = 11 */
(PID.TID 0000.0001)                 2.873420591008078E+05,      /* J = 12 */
(PID.TID 0000.0001)                 2.924298293668651E+05,      /* J = 13 */
(PID.TID 0000.0001)                 2.963715635865306E+05,      /* J = 14 */
(PID.TID 0000.0001)                 2.991805843171258E+05,      /* J = 15 */
(PID.TID 0000.0001)                 3.008638765647886E+05       /* J = 16 */
(PID.TID 0000.0001)     ;
(PID.TID 0000.0001) dyG =  /* dyG(:,1,:,1) ( units: m ) */
(PID.TID 0000.0001)                 1.009837800879055E+05,      /* I =  1 */
(PID.TID 0000.0001)                 1.403701524205398E+05,      /* I =  2 */
(PID.TID 0000.0001)                 1.716197227386011E+05,      /* I =  3 */
(PID.TID 0000.0001)      . . .
(PID.TID 0000.0001)                 1.950254041626018E+05,      /* I = 94 */
(PID.TID 0000.0001)                 1.716197227386011E+05,      /* I = 95 */
(PID.TID 0000.0001)                 1.403701524205398E+05,      /* I = 96 */
(PID.TID 0000.0001)                 3.011625828699101E+05,      /* I = 97 */
(PID.TID 0000.0001)                 3.013880313304323E+05,      /* I = 98 */
(PID.TID 0000.0001)                 3.020546438966793E+05,      /* I = 99 */
(PID.TID 0000.0001)      . . .
(PID.TID 0000.0001)                 3.031337933484788E+05,      /* I =190 */
(PID.TID 0000.0001)                 3.020546438966793E+05,      /* I =191 */
(PID.TID 0000.0001)                 3.013880313304323E+05,      /* I =192 */
(PID.TID 0000.0001)                 1.009837800879055E+05,      /* I =193 */
(PID.TID 0000.0001)                 1.403701524205398E+05,      /* I =194 */
(PID.TID 0000.0001)                 1.716197227386011E+05,      /* I =195 */
(PID.TID 0000.0001)      . . .
(PID.TID 0000.0001)                 1.950254041626018E+05,      /* I =286 */
(PID.TID 0000.0001)                 1.716197227386011E+05,      /* I =287 */
(PID.TID 0000.0001)                 1.403701524205398E+05,      /* I =288 */
(PID.TID 0000.0001)                 3.011625828699101E+05,      /* I =289 */
(PID.TID 0000.0001)                 3.013880313304323E+05,      /* I =290 */
(PID.TID 0000.0001)                 3.020546438966793E+05,      /* I =291 */
(PID.TID 0000.0001)      . . .
(PID.TID 0000.0001)                 3.031337933484788E+05,      /* I =382 */
(PID.TID 0000.0001)                 3.020546438966793E+05,      /* I =383 */
(PID.TID 0000.0001)                 3.013880313304323E+05       /* I =384 */
(PID.TID 0000.0001)     ;
(PID.TID 0000.0001) dyG =  /* dyG(1,:,1,:) ( units: m ) */
(PID.TID 0000.0001)                 1.009837800879055E+05,      /* J =  1 */
(PID.TID 0000.0001)                 1.534505834330338E+05,      /* J =  2 */
(PID.TID 0000.0001)                 1.823321598773926E+05,      /* J =  3 */
(PID.TID 0000.0001)                 2.038999045536999E+05,      /* J =  4 */
(PID.TID 0000.0001)                 2.213884732245467E+05,      /* J =  5 */
(PID.TID 0000.0001)                 2.361211699596122E+05,      /* J =  6 */
(PID.TID 0000.0001)                 2.487693460283865E+05,      /* J =  7 */
(PID.TID 0000.0001)                 2.597126963772147E+05,      /* J =  8 */
(PID.TID 0000.0001)                 2.691790288994575E+05,      /* J =  9 */
(PID.TID 0000.0001)                 2.773091043277394E+05,      /* J = 10 */
(PID.TID 0000.0001)                 2.841906470085516E+05,      /* J = 11 */
(PID.TID 0000.0001)                 2.898778860929753E+05,      /* J = 12 */
(PID.TID 0000.0001)                 2.944035815526416E+05,      /* J = 13 */
(PID.TID 0000.0001)                 2.977867909042096E+05,      /* J = 14 */
(PID.TID 0000.0001)                 3.000380090330854E+05,      /* J = 15 */
(PID.TID 0000.0001)                 3.011625828699101E+05       /* J = 16 */
(PID.TID 0000.0001)     ;
(PID.TID 0000.0001) dxC =  /* dxC(:,1,:,1) ( units: m ) */
(PID.TID 0000.0001)                 1.114203141013064E+05,      /* I =  1 */
(PID.TID 0000.0001)                 1.391343389937106E+05,      /* I =  2 */
(PID.TID 0000.0001)                 1.709574999026266E+05,      /* I =  3 */
(PID.TID 0000.0001)      . . .
(PID.TID 0000.0001)                 1.946503699269892E+05,      /* I = 94 */
(PID.TID 0000.0001)                 1.709574999026266E+05,      /* I = 95 */
(PID.TID 0000.0001)                 1.391343389937106E+05,      /* I = 96 */
(PID.TID 0000.0001)                 3.012281885409289E+05,      /* I = 97 */
(PID.TID 0000.0001)                 3.014528555318499E+05,      /* I = 98 */
(PID.TID 0000.0001)                 3.021172674809921E+05,      /* I = 99 */
(PID.TID 0000.0001)      . . .
(PID.TID 0000.0001)                 3.031928954490276E+05,      /* I =190 */
(PID.TID 0000.0001)                 3.021172674809921E+05,      /* I =191 */
(PID.TID 0000.0001)                 3.014528555318499E+05,      /* I =192 */
(PID.TID 0000.0001)                 1.114203141013064E+05,      /* I =193 */
(PID.TID 0000.0001)                 1.391343389937106E+05,      /* I =194 */
(PID.TID 0000.0001)                 1.709574999026266E+05,      /* I =195 */
(PID.TID 0000.0001)      . . .
(PID.TID 0000.0001)                 1.946503699269892E+05,      /* I =286 */
(PID.TID 0000.0001)                 1.709574999026266E+05,      /* I =287 */
(PID.TID 0000.0001)                 1.391343389937106E+05,      /* I =288 */
(PID.TID 0000.0001)                 3.012281885409289E+05,      /* I =289 */
(PID.TID 0000.0001)                 3.014528555318499E+05,      /* I =290 */
(PID.TID 0000.0001)                 3.021172674809921E+05,      /* I =291 */
(PID.TID 0000.0001)      . . .
(PID.TID 0000.0001)                 3.031928954490276E+05,      /* I =382 */
(PID.TID 0000.0001)                 3.021172674809921E+05,      /* I =383 */
(PID.TID 0000.0001)                 3.014528555318499E+05       /* I =384 */
(PID.TID 0000.0001)     ;
(PID.TID 0000.0001) dxC =  /* dxC(1,:,1,:) ( units: m ) */
(PID.TID 0000.0001)                 1.114203141013064E+05,      /* J =  1 */
(PID.TID 0000.0001)                 1.549545757850771E+05,      /* J =  2 */
(PID.TID 0000.0001)                 1.829777599966776E+05,      /* J =  3 */
(PID.TID 0000.0001)                 2.042717761866506E+05,      /* J =  4 */
(PID.TID 0000.0001)                 2.216367828252819E+05,      /* J =  5 */
(PID.TID 0000.0001)                 2.363029564123586E+05,      /* J =  6 */
(PID.TID 0000.0001)                 2.489113743322025E+05,      /* J =  7 */
(PID.TID 0000.0001)                 2.598293319150326E+05,      /* J =  8 */
(PID.TID 0000.0001)                 2.692787333338535E+05,      /* J =  9 */
(PID.TID 0000.0001)                 2.773972106720365E+05,      /* J = 10 */
(PID.TID 0000.0001)                 2.842706922224557E+05,      /* J = 11 */
(PID.TID 0000.0001)                 2.899523122489403E+05,      /* J = 12 */
(PID.TID 0000.0001)                 2.944741346384699E+05,      /* J = 13 */
(PID.TID 0000.0001)                 2.978547649292580E+05,      /* J = 14 */
(PID.TID 0000.0001)                 3.001044073506459E+05,      /* J = 15 */
(PID.TID 0000.0001)                 3.012281885409289E+05       /* J = 16 */
(PID.TID 0000.0001)     ;
(PID.TID 0000.0001) dyC =  /* dyC(:,1,:,1) ( units: m ) */
(PID.TID 0000.0001)                 1.114203141013064E+05,      /* I =  1 */
(PID.TID 0000.0001)                 1.549545757850771E+05,      /* I =  2 */
(PID.TID 0000.0001)                 1.829777599966776E+05,      /* I =  3 */
(PID.TID 0000.0001)      . . .
(PID.TID 0000.0001)                 1.829777599966776E+05,      /* I = 94 */
(PID.TID 0000.0001)                 1.549545757850771E+05,      /* I = 95 */
(PID.TID 0000.0001)                 1.114203141013064E+05,      /* I = 96 */
(PID.TID 0000.0001)                 3.013593857228136E+05,      /* I = 97 */
(PID.TID 0000.0001)                 3.018056440786431E+05,      /* I = 98 */
(PID.TID 0000.0001)                 3.026789946729719E+05,      /* I = 99 */
(PID.TID 0000.0001)      . . .
(PID.TID 0000.0001)                 3.026789946729719E+05,      /* I =190 */
(PID.TID 0000.0001)                 3.018056440786431E+05,      /* I =191 */
(PID.TID 0000.0001)                 3.013593857228136E+05,      /* I =192 */
(PID.TID 0000.0001)                 1.114203141013064E+05,      /* I =193 */
(PID.TID 0000.0001)                 1.549545757850771E+05,      /* I =194 */
(PID.TID 0000.0001)                 1.829777599966776E+05,      /* I =195 */
(PID.TID 0000.0001)      . . .
(PID.TID 0000.0001)                 1.829777599966776E+05,      /* I =286 */
(PID.TID 0000.0001)                 1.549545757850771E+05,      /* I =287 */
(PID.TID 0000.0001)                 1.114203141013064E+05,      /* I =288 */
(PID.TID 0000.0001)                 3.013593857228136E+05,      /* I =289 */
(PID.TID 0000.0001)                 3.018056440786431E+05,      /* I =290 */
(PID.TID 0000.0001)                 3.026789946729719E+05,      /* I =291 */
(PID.TID 0000.0001)      . . .
(PID.TID 0000.0001)                 3.026789946729719E+05,      /* I =382 */
(PID.TID 0000.0001)                 3.018056440786431E+05,      /* I =383 */
(PID.TID 0000.0001)                 3.013593857228136E+05       /* I =384 */
(PID.TID 0000.0001)     ;
(PID.TID 0000.0001) dyC =  /* dyC(1,:,1,:) ( units: m ) */
(PID.TID 0000.0001)                 1.114203141013064E+05,      /* J =  1 */
(PID.TID 0000.0001)                 1.391343389937106E+05,      /* J =  2 */
(PID.TID 0000.0001)                 1.709574999026266E+05,      /* J =  3 */
(PID.TID 0000.0001)                 1.946503699269892E+05,      /* J =  4 */
(PID.TID 0000.0001)                 2.135964483342134E+05,      /* J =  5 */
(PID.TID 0000.0001)                 2.294195678257306E+05,      /* J =  6 */
(PID.TID 0000.0001)                 2.429464709770498E+05,      /* J =  7 */
(PID.TID 0000.0001)                 2.546408290696998E+05,      /* J =  8 */
(PID.TID 0000.0001)                 2.647791839299727E+05,      /* J =  9 */
(PID.TID 0000.0001)                 2.735321911346108E+05,      /* J = 10 */
(PID.TID 0000.0001)                 2.810065951609633E+05,      /* J = 11 */
(PID.TID 0000.0001)                 2.872689479506990E+05,      /* J = 12 */
(PID.TID 0000.0001)                 2.923599955312932E+05,      /* J = 13 */
(PID.TID 0000.0001)                 2.963038832565530E+05,      /* J = 14 */
(PID.TID 0000.0001)                 2.991142470004740E+05,      /* J = 15 */
(PID.TID 0000.0001)                 3.007982711627968E+05       /* J = 16 */
(PID.TID 0000.0001)     ;
(PID.TID 0000.0001) dxV =  /* dxV(:,1,:,1) ( units: m ) */
(PID.TID 0000.0001)                 8.015229982413632E+04,      /* I =  1 */
(PID.TID 0000.0001)                 1.333130744933864E+05,      /* I =  2 */
(PID.TID 0000.0001)                 1.691744868129062E+05,      /* I =  3 */
(PID.TID 0000.0001)      . . .
(PID.TID 0000.0001)                 1.937548202849060E+05,      /* I = 94 */
(PID.TID 0000.0001)                 1.691744868129062E+05,      /* I = 95 */
(PID.TID 0000.0001)                 1.333130744933864E+05,      /* I = 96 */
(PID.TID 0000.0001)                 3.013686170436881E+05,      /* I = 97 */
(PID.TID 0000.0001)                 3.015922136961168E+05,      /* I = 98 */
(PID.TID 0000.0001)                 3.022533948177109E+05,      /* I = 99 */
(PID.TID 0000.0001)      . . .
(PID.TID 0000.0001)                 3.033238888442880E+05,      /* I =190 */
(PID.TID 0000.0001)                 3.022533948177109E+05,      /* I =191 */
(PID.TID 0000.0001)                 3.015922136961168E+05,      /* I =192 */
(PID.TID 0000.0001)                 8.015229982413632E+04,      /* I =193 */
(PID.TID 0000.0001)                 1.333130744933864E+05,      /* I =194 */
(PID.TID 0000.0001)                 1.691744868129062E+05,      /* I =195 */
(PID.TID 0000.0001)      . . .
(PID.TID 0000.0001)                 1.937548202849060E+05,      /* I =286 */
(PID.TID 0000.0001)                 1.691744868129062E+05,      /* I =287 */
(PID.TID 0000.0001)                 1.333130744933864E+05,      /* I =288 */
(PID.TID 0000.0001)                 3.013686170436881E+05,      /* I =289 */
(PID.TID 0000.0001)                 3.015922136961168E+05,      /* I =290 */
(PID.TID 0000.0001)                 3.022533948177109E+05,      /* I =291 */
(PID.TID 0000.0001)      . . .
(PID.TID 0000.0001)                 3.033238888442880E+05,      /* I =382 */
(PID.TID 0000.0001)                 3.022533948177109E+05,      /* I =383 */
(PID.TID 0000.0001)                 3.015922136961168E+05       /* I =384 */
(PID.TID 0000.0001)     ;
(PID.TID 0000.0001) dxV =  /* dxV(1,:,1,:) ( units: m ) */
(PID.TID 0000.0001)                 8.015229982413632E+04,      /* J =  1 */
(PID.TID 0000.0001)                 1.362652340208229E+05,      /* J =  2 */
(PID.TID 0000.0001)                 1.701080315742101E+05,      /* J =  3 */
(PID.TID 0000.0001)                 1.942331448101592E+05,      /* J =  4 */
(PID.TID 0000.0001)                 2.133486626971531E+05,      /* J =  5 */
(PID.TID 0000.0001)                 2.292584591272880E+05,      /* J =  6 */
(PID.TID 0000.0001)                 2.428369969078989E+05,      /* J =  7 */
(PID.TID 0000.0001)                 2.545652950875683E+05,      /* J =  8 */
(PID.TID 0000.0001)                 2.647274964828301E+05,      /* J =  9 */
(PID.TID 0000.0001)                 2.734980225206389E+05,      /* J = 10 */
(PID.TID 0000.0001)                 2.809856491525217E+05,      /* J = 11 */
(PID.TID 0000.0001)                 2.872580915202295E+05,      /* J = 12 */
(PID.TID 0000.0001)                 2.923567890694162E+05,      /* J = 13 */
(PID.TID 0000.0001)                 2.963063101754721E+05,      /* J = 14 */
(PID.TID 0000.0001)                 2.991205495886625E+05,      /* J = 15 */
(PID.TID 0000.0001)                 3.008068453676764E+05       /* J = 16 */
(PID.TID 0000.0001)     ;
(PID.TID 0000.0001) dyU =  /* dyU(:,1,:,1) ( units: m ) */
(PID.TID 0000.0001)                 8.015229982413632E+04,      /* I =  1 */
(PID.TID 0000.0001)                 1.362652340208229E+05,      /* I =  2 */
(PID.TID 0000.0001)                 1.701080315742101E+05,      /* I =  3 */
(PID.TID 0000.0001)      . . .
(PID.TID 0000.0001)                 1.942331448101592E+05,      /* I = 94 */
(PID.TID 0000.0001)                 1.701080315742101E+05,      /* I = 95 */
(PID.TID 0000.0001)                 1.362652340208229E+05,      /* I = 96 */
(PID.TID 0000.0001)                 3.013031486919771E+05,      /* I = 97 */
(PID.TID 0000.0001)                 3.015274890091515E+05,      /* I = 98 */
(PID.TID 0000.0001)                 3.021908563699420E+05,      /* I = 99 */
(PID.TID 0000.0001)      . . .
(PID.TID 0000.0001)                 3.032648502024415E+05,      /* I =190 */
(PID.TID 0000.0001)                 3.021908563699420E+05,      /* I =191 */
(PID.TID 0000.0001)                 3.015274890091515E+05,      /* I =192 */
(PID.TID 0000.0001)                 8.015229982413632E+04,      /* I =193 */
(PID.TID 0000.0001)                 1.362652340208229E+05,      /* I =194 */
(PID.TID 0000.0001)                 1.701080315742101E+05,      /* I =195 */
(PID.TID 0000.0001)      . . .
(PID.TID 0000.0001)                 1.942331448101592E+05,      /* I =286 */
(PID.TID 0000.0001)                 1.701080315742101E+05,      /* I =287 */
(PID.TID 0000.0001)                 1.362652340208229E+05,      /* I =288 */
(PID.TID 0000.0001)                 3.013031486919771E+05,      /* I =289 */
(PID.TID 0000.0001)                 3.015274890091515E+05,      /* I =290 */
(PID.TID 0000.0001)                 3.021908563699420E+05,      /* I =291 */
(PID.TID 0000.0001)      . . .
(PID.TID 0000.0001)                 3.032648502024415E+05,      /* I =382 */
(PID.TID 0000.0001)                 3.021908563699420E+05,      /* I =383 */
(PID.TID 0000.0001)                 3.015274890091515E+05       /* I =384 */
(PID.TID 0000.0001)     ;
(PID.TID 0000.0001) dyU =  /* dyU(1,:,1,:) ( units: m ) */
(PID.TID 0000.0001)                 8.015229982413632E+04,      /* J =  1 */
(PID.TID 0000.0001)                 1.333130744933864E+05,      /* J =  2 */
(PID.TID 0000.0001)                 1.691744868129062E+05,      /* J =  3 */
(PID.TID 0000.0001)                 1.937548202849060E+05,      /* J =  4 */
(PID.TID 0000.0001)                 2.130490056267208E+05,      /* J =  5 */
(PID.TID 0000.0001)                 2.290479919481738E+05,      /* J =  6 */
(PID.TID 0000.0001)                 2.426774358027003E+05,      /* J =  7 */
(PID.TID 0000.0001)                 2.544372984215561E+05,      /* J =  8 */
(PID.TID 0000.0001)                 2.646201463834826E+05,      /* J =  9 */
(PID.TID 0000.0001)                 2.734046499619031E+05,      /* J = 10 */
(PID.TID 0000.0001)                 2.809019351693761E+05,      /* J = 11 */
(PID.TID 0000.0001)                 2.871811105274442E+05,      /* J = 12 */
(PID.TID 0000.0001)                 2.922844849381675E+05,      /* J = 13 */
(PID.TID 0000.0001)                 2.962371870847826E+05,      /* J = 14 */
(PID.TID 0000.0001)                 2.990534755671296E+05,      /* J = 15 */
(PID.TID 0000.0001)                 3.007409169495504E+05       /* J = 16 */
(PID.TID 0000.0001)     ;
(PID.TID 0000.0001) rA  =  /* rA (:,1,:,1) ( units: m^2 ) */
(PID.TID 0000.0001)                 1.401900702255611E+10,      /* I =  1 */
(PID.TID 0000.0001)                 2.459906945574446E+10,      /* I =  2 */
(PID.TID 0000.0001)                 3.378518544307869E+10,      /* I =  3 */
(PID.TID 0000.0001)      . . .
(PID.TID 0000.0001)                 3.378518544304265E+10,      /* I = 94 */
(PID.TID 0000.0001)                 2.459906945574446E+10,      /* I = 95 */
(PID.TID 0000.0001)                 1.401900702259215E+10,      /* I = 96 */
(PID.TID 0000.0001)                 9.076111290422060E+10,      /* I = 97 */
(PID.TID 0000.0001)                 9.103111035233499E+10,      /* I = 98 */
(PID.TID 0000.0001)                 9.156064070993231E+10,      /* I = 99 */
(PID.TID 0000.0001)      . . .
(PID.TID 0000.0001)                 9.156064070993231E+10,      /* I =190 */
(PID.TID 0000.0001)                 9.103111035233499E+10,      /* I =191 */
(PID.TID 0000.0001)                 9.076111290418457E+10,      /* I =192 */
(PID.TID 0000.0001)                 1.401900702255611E+10,      /* I =193 */
(PID.TID 0000.0001)                 2.459906945574446E+10,      /* I =194 */
(PID.TID 0000.0001)                 3.378518544307869E+10,      /* I =195 */
(PID.TID 0000.0001)      . . .
(PID.TID 0000.0001)                 3.378518544304265E+10,      /* I =286 */
(PID.TID 0000.0001)                 2.459906945574446E+10,      /* I =287 */
(PID.TID 0000.0001)                 1.401900702259215E+10,      /* I =288 */
(PID.TID 0000.0001)                 9.076111290422060E+10,      /* I =289 */
(PID.TID 0000.0001)                 9.103111035233499E+10,      /* I =290 */
(PID.TID 0000.0001)                 9.156064070993231E+10,      /* I =291 */
(PID.TID 0000.0001)      . . .
(PID.TID 0000.0001)                 9.156064070993231E+10,      /* I =382 */
(PID.TID 0000.0001)                 9.103111035233499E+10,      /* I =383 */
(PID.TID 0000.0001)                 9.076111290418457E+10       /* I =384 */
(PID.TID 0000.0001)     ;
(PID.TID 0000.0001) rA  =  /* rA (1,:,1,:) ( units: m^2 ) */
(PID.TID 0000.0001)                 1.401900702255611E+10,      /* J =  1 */
(PID.TID 0000.0001)                 2.459906945574446E+10,      /* J =  2 */
(PID.TID 0000.0001)                 3.378518544307869E+10,      /* J =  3 */
(PID.TID 0000.0001)                 4.192037169898667E+10,      /* J =  4 */
(PID.TID 0000.0001)                 4.925938996118163E+10,      /* J =  5 */
(PID.TID 0000.0001)                 5.594154126607553E+10,      /* J =  6 */
(PID.TID 0000.0001)                 6.203683527776127E+10,      /* J =  7 */
(PID.TID 0000.0001)                 6.757541173817516E+10,      /* J =  8 */
(PID.TID 0000.0001)                 7.256353271748119E+10,      /* J =  9 */
(PID.TID 0000.0001)                 7.699293007098555E+10,      /* J = 10 */
(PID.TID 0000.0001)                 8.084683449728902E+10,      /* J = 11 */
(PID.TID 0000.0001)                 8.410423102799828E+10,      /* J = 12 */
(PID.TID 0000.0001)                 8.674306976737517E+10,      /* J = 13 */
(PID.TID 0000.0001)                 8.874277443041928E+10,      /* J = 14 */
(PID.TID 0000.0001)                 9.008620045350865E+10,      /* J = 15 */
(PID.TID 0000.0001)                 9.076111290418457E+10       /* J = 16 */
(PID.TID 0000.0001)     ;
(PID.TID 0000.0001) rAw =  /* rAw(:,1,:,1) ( units: m^2 ) */
(PID.TID 0000.0001)                 1.216690346714270E+10,      /* I =  1 */
(PID.TID 0000.0001)                 1.974052138506315E+10,      /* I =  2 */
(PID.TID 0000.0001)                 2.943712825252015E+10,      /* I =  3 */
(PID.TID 0000.0001)      . . .
(PID.TID 0000.0001)                 3.801790263325260E+10,      /* I = 94 */
(PID.TID 0000.0001)                 2.943712825251114E+10,      /* I = 95 */
(PID.TID 0000.0001)                 1.974052138509018E+10,      /* I = 96 */
(PID.TID 0000.0001)                 9.071447638299399E+10,      /* I = 97 */
(PID.TID 0000.0001)                 9.085012105610597E+10,      /* I = 98 */
(PID.TID 0000.0001)                 9.125179254955583E+10,      /* I = 99 */
(PID.TID 0000.0001)      . . .
(PID.TID 0000.0001)                 9.190392048045309E+10,      /* I =190 */
(PID.TID 0000.0001)                 9.125179254954683E+10,      /* I =191 */
(PID.TID 0000.0001)                 9.085012105606993E+10,      /* I =192 */
(PID.TID 0000.0001)                 1.216690346714270E+10,      /* I =193 */
(PID.TID 0000.0001)                 1.974052138506315E+10,      /* I =194 */
(PID.TID 0000.0001)                 2.943712825252015E+10,      /* I =195 */
(PID.TID 0000.0001)      . . .
(PID.TID 0000.0001)                 3.801790263325260E+10,      /* I =286 */
(PID.TID 0000.0001)                 2.943712825251114E+10,      /* I =287 */
(PID.TID 0000.0001)                 1.974052138509018E+10,      /* I =288 */
(PID.TID 0000.0001)                 9.071447638299399E+10,      /* I =289 */
(PID.TID 0000.0001)                 9.085012105610597E+10,      /* I =290 */
(PID.TID 0000.0001)                 9.125179254955583E+10,      /* I =291 */
(PID.TID 0000.0001)      . . .
(PID.TID 0000.0001)                 9.190392048045309E+10,      /* I =382 */
(PID.TID 0000.0001)                 9.125179254954683E+10,      /* I =383 */
(PID.TID 0000.0001)                 9.085012105606993E+10       /* I =384 */
(PID.TID 0000.0001)     ;
(PID.TID 0000.0001) rAw =  /* rAw(1,:,1,:) ( units: m^2 ) */
(PID.TID 0000.0001)                 1.216690346714270E+10,      /* J =  1 */
(PID.TID 0000.0001)                 2.390126200743558E+10,      /* J =  2 */
(PID.TID 0000.0001)                 3.341968103208270E+10,      /* J =  3 */
(PID.TID 0000.0001)                 4.168532893152940E+10,      /* J =  4 */
(PID.TID 0000.0001)                 4.909074590409593E+10,      /* J =  5 */
(PID.TID 0000.0001)                 5.581203765722643E+10,      /* J =  6 */
(PID.TID 0000.0001)                 6.193257577506788E+10,      /* J =  7 */
(PID.TID 0000.0001)                 6.748840226738273E+10,      /* J =  8 */
(PID.TID 0000.0001)                 7.248875782324815E+10,      /* J =  9 */
(PID.TID 0000.0001)                 7.692702995909871E+10,      /* J = 10 */
(PID.TID 0000.0001)                 8.078743937057304E+10,      /* J = 11 */
(PID.TID 0000.0001)                 8.404959656062837E+10,      /* J = 12 */
(PID.TID 0000.0001)                 8.669186205742538E+10,      /* J = 13 */
(PID.TID 0000.0001)                 8.869393350723613E+10,      /* J = 14 */
(PID.TID 0000.0001)                 9.003884657168852E+10,      /* J = 15 */
(PID.TID 0000.0001)                 9.071447638299399E+10       /* J = 16 */
(PID.TID 0000.0001)     ;
(PID.TID 0000.0001) rAs =  /* rAs(:,1,:,1) ( units: m^2 ) */
(PID.TID 0000.0001)                 1.216690346714270E+10,      /* I =  1 */
(PID.TID 0000.0001)                 2.390126200743558E+10,      /* I =  2 */
(PID.TID 0000.0001)                 3.341968103208270E+10,      /* I =  3 */
(PID.TID 0000.0001)      . . .
(PID.TID 0000.0001)                 3.341968103208270E+10,      /* I = 94 */
(PID.TID 0000.0001)                 2.390126200743558E+10,      /* I = 95 */
(PID.TID 0000.0001)                 1.216690346714270E+10,      /* I = 96 */
(PID.TID 0000.0001)                 9.083293515008307E+10,      /* I = 97 */
(PID.TID 0000.0001)                 9.110170898494536E+10,      /* I = 98 */
(PID.TID 0000.0001)                 9.162886297688426E+10,      /* I = 99 */
(PID.TID 0000.0001)      . . .
(PID.TID 0000.0001)                 9.162886297688426E+10,      /* I =190 */
(PID.TID 0000.0001)                 9.110170898494536E+10,      /* I =191 */
(PID.TID 0000.0001)                 9.083293515008307E+10,      /* I =192 */
(PID.TID 0000.0001)                 1.216690346714270E+10,      /* I =193 */
(PID.TID 0000.0001)                 2.390126200743558E+10,      /* I =194 */
(PID.TID 0000.0001)                 3.341968103208270E+10,      /* I =195 */
(PID.TID 0000.0001)      . . .
(PID.TID 0000.0001)                 3.341968103208270E+10,      /* I =286 */
(PID.TID 0000.0001)                 2.390126200743558E+10,      /* I =287 */
(PID.TID 0000.0001)                 1.216690346714270E+10,      /* I =288 */
(PID.TID 0000.0001)                 9.083293515008307E+10,      /* I =289 */
(PID.TID 0000.0001)                 9.110170898494536E+10,      /* I =290 */
(PID.TID 0000.0001)                 9.162886297688426E+10,      /* I =291 */
(PID.TID 0000.0001)      . . .
(PID.TID 0000.0001)                 9.162886297688426E+10,      /* I =382 */
(PID.TID 0000.0001)                 9.110170898494536E+10,      /* I =383 */
(PID.TID 0000.0001)                 9.083293515008307E+10       /* I =384 */
(PID.TID 0000.0001)     ;
(PID.TID 0000.0001) rAs =  /* rAs(1,:,1,:) ( units: m^2 ) */
(PID.TID 0000.0001)                 1.216690346714270E+10,      /* J =  1 */
(PID.TID 0000.0001)                 1.974052138506315E+10,      /* J =  2 */
(PID.TID 0000.0001)                 2.943712825252015E+10,      /* J =  3 */
(PID.TID 0000.0001)                 3.801790263324359E+10,      /* J =  4 */
(PID.TID 0000.0001)                 4.571243814189866E+10,      /* J =  5 */
(PID.TID 0000.0001)                 5.269930713599979E+10,      /* J =  6 */
(PID.TID 0000.0001)                 5.907428494299063E+10,      /* J =  7 */
(PID.TID 0000.0001)                 6.488320895111514E+10,      /* J =  8 */
(PID.TID 0000.0001)                 7.014205907741882E+10,      /* J =  9 */
(PID.TID 0000.0001)                 7.484854821847499E+10,      /* J = 10 */
(PID.TID 0000.0001)                 7.898934631431560E+10,      /* J = 11 */
(PID.TID 0000.0001)                 8.254500894894537E+10,      /* J = 12 */
(PID.TID 0000.0001)                 8.549360686473492E+10,      /* J = 13 */
(PID.TID 0000.0001)                 8.781353403175085E+10,      /* J = 14 */
(PID.TID 0000.0001)                 8.948571540392021E+10,      /* J = 15 */
(PID.TID 0000.0001)                 9.049530583086168E+10       /* J = 16 */
(PID.TID 0000.0001)     ;
(PID.TID 0000.0001) globalArea = /* Integrated horizontal Area (m^2) */
(PID.TID 0000.0001)                 3.638867375081599E+14
(PID.TID 0000.0001)     ;
(PID.TID 0000.0001) hasWetCSCorners = /* Domain contains CS corners (True/False) */
(PID.TID 0000.0001)                   T
(PID.TID 0000.0001)     ;
(PID.TID 0000.0001) // =======================================================
(PID.TID 0000.0001) // End of Model config. summary
(PID.TID 0000.0001) // =======================================================
(PID.TID 0000.0001) 
(PID.TID 0000.0001) == Packages configuration : Check & print summary ==
(PID.TID 0000.0001) 
(PID.TID 0000.0001) GGL90_CHECK: #define ALLOW_GGL90
(PID.TID 0000.0001) GMREDI_CHECK: #define GMREDI
(PID.TID 0000.0001) GM_AdvForm =     /* if FALSE => use SkewFlux Form */
(PID.TID 0000.0001)                   T
(PID.TID 0000.0001)     ;
(PID.TID 0000.0001) GM_InMomAsStress = /* if TRUE => apply as Eddy Stress */
(PID.TID 0000.0001)                   F
(PID.TID 0000.0001)     ;
(PID.TID 0000.0001) GM_AdvSeparate = /* Calc Bolus & Euler Adv. separately */
(PID.TID 0000.0001)                   F
(PID.TID 0000.0001)     ;
(PID.TID 0000.0001) GM_ExtraDiag =   /* Tensor Extra Diag (line 1&2) non 0 */
(PID.TID 0000.0001)                   T
(PID.TID 0000.0001)     ;
(PID.TID 0000.0001) GM_isopycK =    /* Background Isopyc. Diffusivity [m^2/s] */
(PID.TID 0000.0001)                 1.000000000000000E+03
(PID.TID 0000.0001)     ;
(PID.TID 0000.0001) GM_skewflx*K =  /* Background GM_SkewFlx Diffusivity [m^2/s] */
(PID.TID 0000.0001)                 0.000000000000000E+00
(PID.TID 0000.0001)     ;
(PID.TID 0000.0001) GM_advec*K =    /* Backg. GM-Advec(=Bolus) Diffusivity [m^2/s]*/
(PID.TID 0000.0001)                 1.000000000000000E+03
(PID.TID 0000.0001)     ;
(PID.TID 0000.0001) GM_Kmin_horiz = /* Minimum Horizontal Diffusivity [m^2/s] */
(PID.TID 0000.0001)                 1.000000000000000E+02
(PID.TID 0000.0001)     ;
(PID.TID 0000.0001) GM_Visbeck_alpha = /* Visbeck alpha coeff. [-] */
(PID.TID 0000.0001)                 0.000000000000000E+00
(PID.TID 0000.0001)     ;
(PID.TID 0000.0001) GM_Small_Number =  /* epsilon used in slope calc */
(PID.TID 0000.0001)                 9.999999999999999E-21
(PID.TID 0000.0001)     ;
(PID.TID 0000.0001) GM_slopeSqCutoff = /* Slope^2 cut-off value */
(PID.TID 0000.0001)                 1.000000000000000E+08
(PID.TID 0000.0001)     ;
(PID.TID 0000.0001) GM_taper_scheme =  /* Type of Tapering/Clipping scheme */
(PID.TID 0000.0001)               'stableGmAdjTap                          '
(PID.TID 0000.0001)     ;
(PID.TID 0000.0001) GM_maxSlope =  /* Maximum Slope (Tapering/Clipping) */
(PID.TID 0000.0001)                 4.000000000000000E-03
(PID.TID 0000.0001)     ;
(PID.TID 0000.0001) GM_facTrL2dz = /* Minimum Trans.Layer Thick. (factor of dz) */
(PID.TID 0000.0001)                 1.000000000000000E+00
(PID.TID 0000.0001)     ;
(PID.TID 0000.0001) GM_facTrL2ML = /* Max.Trans.Layer Thick. (factor of MxL Depth)*/
(PID.TID 0000.0001)                 5.000000000000000E+00
(PID.TID 0000.0001)     ;
(PID.TID 0000.0001) GM_maxTransLay = /* Maximum Transition Layer Thickness [m] */
(PID.TID 0000.0001)                 5.000000000000000E+02
(PID.TID 0000.0001)     ;
(PID.TID 0000.0001) GM_UseBVP = /* if TRUE => use bvp a la Ferrari et al. (2010) */
(PID.TID 0000.0001)                   F
(PID.TID 0000.0001)     ;
(PID.TID 0000.0001) GM_BVP_ModeNumber = /* Vertical mode number for BVP wave speed */
(PID.TID 0000.0001)                       1
(PID.TID 0000.0001)     ;
(PID.TID 0000.0001) GM_BVP_cMin = /* Minimum wave speed for BVP [m/s] */
(PID.TID 0000.0001)                 1.000000000000000E-01
(PID.TID 0000.0001)     ;
(PID.TID 0000.0001) GM_useSubMeso = /* if TRUE => use Sub-Meso param. (B.Fox-Kemper) */
(PID.TID 0000.0001)                   F
(PID.TID 0000.0001)     ;
(PID.TID 0000.0001) subMeso_Ceff = /* efficiency coeff. of Mixed-Layer Eddies [-] */
(PID.TID 0000.0001)                 7.000000000000001E-02
(PID.TID 0000.0001)     ;
(PID.TID 0000.0001) subMeso_invTau = /* inverse of Sub-Meso mixing time-scale [/s] */
(PID.TID 0000.0001)                 2.000000000000000E-06
(PID.TID 0000.0001)     ;
(PID.TID 0000.0001) subMeso_LfMin = /* minimum length-scale "Lf" [m] */
(PID.TID 0000.0001)                 1.000000000000000E+03
(PID.TID 0000.0001)     ;
(PID.TID 0000.0001) subMeso_Lmax = /* maximum grid-scale length [m] */
(PID.TID 0000.0001)                 1.100000000000000E+05
(PID.TID 0000.0001)     ;
(PID.TID 0000.0001) SEAICE_CHECK: #define ALLOW_SEAICE
(PID.TID 0000.0001) SALT_PLUME_CHECK: #define SALT_PLUME
(PID.TID 0000.0001) CTRL_CHECK: ctrl package
(PID.TID 0000.0001) COST_CHECK: cost package
(PID.TID 0000.0001) GRDCHK_CHECK: grdchk package
(PID.TID 0000.0001) GAD_CHECK: #define ALLOW_GENERIC_ADVDIFF
(PID.TID 0000.0001) // =======================================================
(PID.TID 0000.0001) // Check Model config. (CONFIG_CHECK):
(PID.TID 0000.0001) // CONFIG_CHECK : Normal End
(PID.TID 0000.0001) // =======================================================
(PID.TID 0000.0001) 
(PID.TID 0000.0001) Start initial hydrostatic pressure computation
(PID.TID 0000.0001) Pressure is predetermined for buoyancyRelation OCEANIC
(PID.TID 0000.0001) 
(PID.TID 0000.0001) // =======================================================
(PID.TID 0000.0001) // Begin MONITOR dynamic field statistics
(PID.TID 0000.0001) // =======================================================
(PID.TID 0000.0001) %MON time_tsnumber                =                     0
(PID.TID 0000.0001) %MON time_secondsf                =   0.0000000000000E+00
(PID.TID 0000.0001) %MON dynstat_eta_max              =   0.0000000000000E+00
(PID.TID 0000.0001) %MON dynstat_eta_min              =   0.0000000000000E+00
(PID.TID 0000.0001) %MON dynstat_eta_mean             =   0.0000000000000E+00
(PID.TID 0000.0001) %MON dynstat_eta_sd               =   0.0000000000000E+00
(PID.TID 0000.0001) %MON dynstat_eta_del2             =   0.0000000000000E+00
(PID.TID 0000.0001) %MON dynstat_uvel_max             =   0.0000000000000E+00
(PID.TID 0000.0001) %MON dynstat_uvel_min             =   0.0000000000000E+00
(PID.TID 0000.0001) %MON dynstat_uvel_mean            =   0.0000000000000E+00
(PID.TID 0000.0001) %MON dynstat_uvel_sd              =   0.0000000000000E+00
(PID.TID 0000.0001) %MON dynstat_uvel_del2            =   0.0000000000000E+00
(PID.TID 0000.0001) %MON dynstat_vvel_max             =   0.0000000000000E+00
(PID.TID 0000.0001) %MON dynstat_vvel_min             =   0.0000000000000E+00
(PID.TID 0000.0001) %MON dynstat_vvel_mean            =   0.0000000000000E+00
(PID.TID 0000.0001) %MON dynstat_vvel_sd              =   0.0000000000000E+00
(PID.TID 0000.0001) %MON dynstat_vvel_del2            =   0.0000000000000E+00
(PID.TID 0000.0001) %MON dynstat_wvel_max             =   0.0000000000000E+00
(PID.TID 0000.0001) %MON dynstat_wvel_min             =   0.0000000000000E+00
(PID.TID 0000.0001) %MON dynstat_wvel_mean            =   0.0000000000000E+00
(PID.TID 0000.0001) %MON dynstat_wvel_sd              =   0.0000000000000E+00
(PID.TID 0000.0001) %MON dynstat_wvel_del2            =   0.0000000000000E+00
(PID.TID 0000.0001) %MON dynstat_theta_max            =   3.0250358581543E+01
(PID.TID 0000.0001) %MON dynstat_theta_min            =  -1.9540429115295E+00
(PID.TID 0000.0001) %MON dynstat_theta_mean           =   3.5950366197190E+00
(PID.TID 0000.0001) %MON dynstat_theta_sd             =   4.4462651796052E+00
(PID.TID 0000.0001) %MON dynstat_theta_del2           =   1.6262218662243E-03
(PID.TID 0000.0001) %MON dynstat_salt_max             =   4.1000000000000E+01
(PID.TID 0000.0001) %MON dynstat_salt_min             =   2.9000000000000E+01
(PID.TID 0000.0001) %MON dynstat_salt_mean            =   3.4726326276874E+01
(PID.TID 0000.0001) %MON dynstat_salt_sd              =   4.0085357985152E-01
(PID.TID 0000.0001) %MON dynstat_salt_del2            =   3.3800732881832E-04
(PID.TID 0000.0001) %MON forcing_qnet_max             =   0.0000000000000E+00
(PID.TID 0000.0001) %MON forcing_qnet_min             =   0.0000000000000E+00
(PID.TID 0000.0001) %MON forcing_qnet_mean            =   0.0000000000000E+00
(PID.TID 0000.0001) %MON forcing_qnet_sd              =   0.0000000000000E+00
(PID.TID 0000.0001) %MON forcing_qnet_del2            =   0.0000000000000E+00
(PID.TID 0000.0001) %MON forcing_qsw_max              =   0.0000000000000E+00
(PID.TID 0000.0001) %MON forcing_qsw_min              =   0.0000000000000E+00
(PID.TID 0000.0001) %MON forcing_qsw_mean             =   0.0000000000000E+00
(PID.TID 0000.0001) %MON forcing_qsw_sd               =   0.0000000000000E+00
(PID.TID 0000.0001) %MON forcing_qsw_del2             =   0.0000000000000E+00
(PID.TID 0000.0001) %MON forcing_empmr_max            =   0.0000000000000E+00
(PID.TID 0000.0001) %MON forcing_empmr_min            =   0.0000000000000E+00
(PID.TID 0000.0001) %MON forcing_empmr_mean           =   0.0000000000000E+00
(PID.TID 0000.0001) %MON forcing_empmr_sd             =   0.0000000000000E+00
(PID.TID 0000.0001) %MON forcing_empmr_del2           =   0.0000000000000E+00
(PID.TID 0000.0001) %MON forcing_fu_max               =   0.0000000000000E+00
(PID.TID 0000.0001) %MON forcing_fu_min               =   0.0000000000000E+00
(PID.TID 0000.0001) %MON forcing_fu_mean              =   0.0000000000000E+00
(PID.TID 0000.0001) %MON forcing_fu_sd                =   0.0000000000000E+00
(PID.TID 0000.0001) %MON forcing_fu_del2              =   0.0000000000000E+00
(PID.TID 0000.0001) %MON forcing_fv_max               =   0.0000000000000E+00
(PID.TID 0000.0001) %MON forcing_fv_min               =   0.0000000000000E+00
(PID.TID 0000.0001) %MON forcing_fv_mean              =   0.0000000000000E+00
(PID.TID 0000.0001) %MON forcing_fv_sd                =   0.0000000000000E+00
(PID.TID 0000.0001) %MON forcing_fv_del2              =   0.0000000000000E+00
(PID.TID 0000.0001) %MON advcfl_uvel_max              =   0.0000000000000E+00
(PID.TID 0000.0001) %MON advcfl_vvel_max              =   0.0000000000000E+00
(PID.TID 0000.0001) %MON advcfl_wvel_max              =   0.0000000000000E+00
(PID.TID 0000.0001) %MON advcfl_W_hf_max              =   0.0000000000000E+00
(PID.TID 0000.0001) %MON pe_b_mean                    =   0.0000000000000E+00
(PID.TID 0000.0001) %MON ke_max                       =   0.0000000000000E+00
(PID.TID 0000.0001) %MON ke_mean                      =   0.0000000000000E+00
(PID.TID 0000.0001) %MON ke_vol                       =   1.3542980227617E+18
(PID.TID 0000.0001) %MON vort_r_min                   =   0.0000000000000E+00
(PID.TID 0000.0001) %MON vort_r_max                   =   0.0000000000000E+00
(PID.TID 0000.0001) %MON vort_a_mean                  =  -1.9720793743754E-05
(PID.TID 0000.0001) %MON vort_a_sd                    =   7.5194714484209E-05
(PID.TID 0000.0001) %MON vort_p_mean                  =  -2.3385747453960E-05
(PID.TID 0000.0001) %MON vort_p_sd                    =   1.1230106999018E-04
(PID.TID 0000.0001) %MON surfExpan_theta_mean         =   0.0000000000000E+00
(PID.TID 0000.0001) %MON surfExpan_salt_mean          =   0.0000000000000E+00
(PID.TID 0000.0001) // =======================================================
(PID.TID 0000.0001) // End MONITOR dynamic field statistics
(PID.TID 0000.0001) // =======================================================
(PID.TID 0000.0001) // =======================================================
(PID.TID 0000.0001) // Begin MONITOR SEAICE statistics
(PID.TID 0000.0001) // =======================================================
(PID.TID 0000.0001) %MON seaice_tsnumber              =                     0
(PID.TID 0000.0001) %MON seaice_time_sec              =   0.0000000000000E+00
(PID.TID 0000.0001) %MON seaice_uice_max              =   0.0000000000000E+00
(PID.TID 0000.0001) %MON seaice_uice_min              =   0.0000000000000E+00
(PID.TID 0000.0001) %MON seaice_uice_mean             =   0.0000000000000E+00
(PID.TID 0000.0001) %MON seaice_uice_sd               =   0.0000000000000E+00
(PID.TID 0000.0001) %MON seaice_uice_del2             =   0.0000000000000E+00
(PID.TID 0000.0001) %MON seaice_vice_max              =   0.0000000000000E+00
(PID.TID 0000.0001) %MON seaice_vice_min              =   0.0000000000000E+00
(PID.TID 0000.0001) %MON seaice_vice_mean             =   0.0000000000000E+00
(PID.TID 0000.0001) %MON seaice_vice_sd               =   0.0000000000000E+00
(PID.TID 0000.0001) %MON seaice_vice_del2             =   0.0000000000000E+00
(PID.TID 0000.0001) %MON seaice_area_max              =   0.0000000000000E+00
(PID.TID 0000.0001) %MON seaice_area_min              =   0.0000000000000E+00
(PID.TID 0000.0001) %MON seaice_area_mean             =   0.0000000000000E+00
(PID.TID 0000.0001) %MON seaice_area_sd               =   0.0000000000000E+00
(PID.TID 0000.0001) %MON seaice_area_del2             =   0.0000000000000E+00
(PID.TID 0000.0001) %MON seaice_heff_max              =   0.0000000000000E+00
(PID.TID 0000.0001) %MON seaice_heff_min              =   0.0000000000000E+00
(PID.TID 0000.0001) %MON seaice_heff_mean             =   0.0000000000000E+00
(PID.TID 0000.0001) %MON seaice_heff_sd               =   0.0000000000000E+00
(PID.TID 0000.0001) %MON seaice_heff_del2             =   0.0000000000000E+00
(PID.TID 0000.0001) %MON seaice_hsnow_max             =   0.0000000000000E+00
(PID.TID 0000.0001) %MON seaice_hsnow_min             =   0.0000000000000E+00
(PID.TID 0000.0001) %MON seaice_hsnow_mean            =   0.0000000000000E+00
(PID.TID 0000.0001) %MON seaice_hsnow_sd              =   0.0000000000000E+00
(PID.TID 0000.0001) %MON seaice_hsnow_del2            =   0.0000000000000E+00
(PID.TID 0000.0001) // =======================================================
(PID.TID 0000.0001) // End MONITOR SEAICE statistics
(PID.TID 0000.0001) // =======================================================
(PID.TID 0000.0001) whio : create lev 3 rec   9
(PID.TID 0000.0001) whio : write lev 3 rec   1
(PID.TID 0000.0001) whio : create lev 2 rec   9
(PID.TID 0000.0001) // =======================================================
(PID.TID 0000.0001) // Begin MONITOR EXF statistics
(PID.TID 0000.0001) // =======================================================
(PID.TID 0000.0001) %MON exf_tsnumber                 =                     0
(PID.TID 0000.0001) %MON exf_time_sec                 =   0.0000000000000E+00
(PID.TID 0000.0001) %MON exf_ustress_max              =   1.1522614646989E+00
(PID.TID 0000.0001) %MON exf_ustress_min              =  -7.9472462321778E-01
(PID.TID 0000.0001) %MON exf_ustress_mean             =  -6.2253112371673E-03
(PID.TID 0000.0001) %MON exf_ustress_sd               =   1.1732273794343E-01
(PID.TID 0000.0001) %MON exf_ustress_del2             =   1.8840777343650E-03
(PID.TID 0000.0001) %MON exf_vstress_max              =   1.7432104413259E+00
(PID.TID 0000.0001) %MON exf_vstress_min              =  -1.1754161466367E+00
(PID.TID 0000.0001) %MON exf_vstress_mean             =  -2.0359911690660E-02
(PID.TID 0000.0001) %MON exf_vstress_sd               =   1.1976747552370E-01
(PID.TID 0000.0001) %MON exf_vstress_del2             =   1.9450364315321E-03
(PID.TID 0000.0001) %MON exf_hflux_max                =   9.6166702213717E+02
(PID.TID 0000.0001) %MON exf_hflux_min                =  -2.7158733727438E+02
(PID.TID 0000.0001) %MON exf_hflux_mean               =  -1.0179368021832E+01
(PID.TID 0000.0001) %MON exf_hflux_sd                 =   1.7021621923668E+02
(PID.TID 0000.0001) %MON exf_hflux_del2               =   1.9416422525113E+00
(PID.TID 0000.0001) %MON exf_sflux_max                =   1.9581753374148E-07
(PID.TID 0000.0001) %MON exf_sflux_min                =  -1.2500822951711E-07
(PID.TID 0000.0001) %MON exf_sflux_mean               =   1.6681569196660E-09
(PID.TID 0000.0001) %MON exf_sflux_sd                 =   3.4688564915311E-08
(PID.TID 0000.0001) %MON exf_sflux_del2               =   4.8891264934365E-10
(PID.TID 0000.0001) %MON exf_uwind_max                =   2.0860738329561E+01
(PID.TID 0000.0001) %MON exf_uwind_min                =  -1.8430840732697E+01
(PID.TID 0000.0001) %MON exf_uwind_mean               =  -5.3733325327735E-01
(PID.TID 0000.0001) %MON exf_uwind_sd                 =   5.9272447408738E+00
(PID.TID 0000.0001) %MON exf_uwind_del2               =   9.3928447988652E-02
(PID.TID 0000.0001) %MON exf_vwind_max                =   2.5321903731717E+01
(PID.TID 0000.0001) %MON exf_vwind_min                =  -2.1275566953749E+01
(PID.TID 0000.0001) %MON exf_vwind_mean               =  -1.6721390706625E+00
(PID.TID 0000.0001) %MON exf_vwind_sd                 =   5.8251949456150E+00
(PID.TID 0000.0001) %MON exf_vwind_del2               =   9.5536154988922E-02
(PID.TID 0000.0001) %MON exf_wspeed_max               =   2.5568045924531E+01
(PID.TID 0000.0001) %MON exf_wspeed_min               =   3.8263317846434E-01
(PID.TID 0000.0001) %MON exf_wspeed_mean              =   7.8139300062484E+00
(PID.TID 0000.0001) %MON exf_wspeed_sd                =   3.3305255331254E+00
(PID.TID 0000.0001) %MON exf_wspeed_del2              =   9.2486075582712E-02
(PID.TID 0000.0001) %MON exf_atemp_max                =   3.0427942262314E+02
(PID.TID 0000.0001) %MON exf_atemp_min                =   2.3115790325848E+02
(PID.TID 0000.0001) %MON exf_atemp_mean               =   2.8924749306250E+02
(PID.TID 0000.0001) %MON exf_atemp_sd                 =   1.2640811150614E+01
(PID.TID 0000.0001) %MON exf_atemp_del2               =   1.5218096614704E-01
(PID.TID 0000.0001) %MON exf_aqh_max                  =   2.1509759853571E-02
(PID.TID 0000.0001) %MON exf_aqh_min                  =  -7.3791298412708E-04
(PID.TID 0000.0001) %MON exf_aqh_mean                 =   1.1106008065461E-02
(PID.TID 0000.0001) %MON exf_aqh_sd                   =   5.7776803619327E-03
(PID.TID 0000.0001) %MON exf_aqh_del2                 =   9.2605876253702E-05
(PID.TID 0000.0001) %MON exf_lwflux_max               =   1.4167633857200E+02
(PID.TID 0000.0001) %MON exf_lwflux_min               =   2.1604527382750E+01
(PID.TID 0000.0001) %MON exf_lwflux_mean              =   5.7523130449950E+01
(PID.TID 0000.0001) %MON exf_lwflux_sd                =   1.7751600143345E+01
(PID.TID 0000.0001) %MON exf_lwflux_del2              =   4.3530220506968E-01
(PID.TID 0000.0001) %MON exf_precip_max               =   1.3952020600973E-07
(PID.TID 0000.0001) %MON exf_precip_min               =   5.3486228464102E-10
(PID.TID 0000.0001) %MON exf_precip_mean              =   3.5682914769879E-08
(PID.TID 0000.0001) %MON exf_precip_sd                =   2.7031607497543E-08
(PID.TID 0000.0001) %MON exf_precip_del2              =   3.5134892686758E-10
(PID.TID 0000.0001) %MON exf_swflux_max               =  -0.0000000000000E+00
(PID.TID 0000.0001) %MON exf_swflux_min               =  -3.0798548080635E+02
(PID.TID 0000.0001) %MON exf_swflux_mean              =  -1.8591177421038E+02
(PID.TID 0000.0001) %MON exf_swflux_sd                =   8.1419977130857E+01
(PID.TID 0000.0001) %MON exf_swflux_del2              =   1.4907766955980E+00
(PID.TID 0000.0001) %MON exf_evap_max                 =   2.3038671079334E-07
(PID.TID 0000.0001) %MON exf_evap_min                 =  -3.0941414016950E-08
(PID.TID 0000.0001) %MON exf_evap_mean                =   3.7351071689545E-08
(PID.TID 0000.0001) %MON exf_evap_sd                  =   2.5899056584349E-08
(PID.TID 0000.0001) %MON exf_evap_del2                =   5.0452209667951E-10
(PID.TID 0000.0001) %MON exf_swdown_max               =   3.2974890878624E+02
(PID.TID 0000.0001) %MON exf_swdown_min               =   0.0000000000000E+00
(PID.TID 0000.0001) %MON exf_swdown_mean              =   1.9904900879056E+02
(PID.TID 0000.0001) %MON exf_swdown_sd                =   8.7173423052309E+01
(PID.TID 0000.0001) %MON exf_swdown_del2              =   1.5961206590985E+00
(PID.TID 0000.0001) %MON exf_lwdown_max               =   4.3346188201475E+02
(PID.TID 0000.0001) %MON exf_lwdown_min               =   1.7039117065578E+02
(PID.TID 0000.0001) %MON exf_lwdown_mean              =   3.5336448250249E+02
(PID.TID 0000.0001) %MON exf_lwdown_sd                =   5.7676954184704E+01
(PID.TID 0000.0001) %MON exf_lwdown_del2              =   2.6123616407635E+00
(PID.TID 0000.0001) %MON exf_climsss_max              =   3.9970559643161E+01
(PID.TID 0000.0001) %MON exf_climsss_min              =   1.7855153914421E+01
(PID.TID 0000.0001) %MON exf_climsss_mean             =   3.4682895412505E+01
(PID.TID 0000.0001) %MON exf_climsss_sd               =   1.4109882129859E+00
(PID.TID 0000.0001) %MON exf_climsss_del2             =   4.9144362345097E-03
(PID.TID 0000.0001) // =======================================================
(PID.TID 0000.0001) // End MONITOR EXF statistics
(PID.TID 0000.0001) // =======================================================
 SEAICE_LSR: Residual Initial ipass,Uice,Vice=    1  1.55658339E-01  1.58680354E-01
 SEAICE_LSR: Residual FrDrift U_fd,V_fd=  1.28352825E-01  1.30754320E-01
 SEAICE_LSR (ipass=   1) iters,dU,Resid=     6  1.31060814E-06  2.43216155E-09
 SEAICE_LSR (ipass=   1) iters,dV,Resid=     6  1.67046858E-06  2.47938053E-09
 SEAICE_LSR: Residual Initial ipass,Uice,Vice=    2  1.51455982E+00  1.81933174E+00
 SEAICE_LSR: Residual FrDrift U_fd,V_fd=  3.02989708E-01  3.29191053E-01
 SEAICE_LSR (ipass=   2) iters,dU,Resid=     6  6.26812545E-07  2.36649972E-08
 SEAICE_LSR (ipass=   2) iters,dV,Resid=     6  8.05712098E-07  2.84270585E-08
(PID.TID 0000.0001) SOLVE_FOR_PRESSURE: putPmEinXvector =    F
 cg2d: Sum(rhs),rhsMax =   7.73551084252233E-01  6.80494402321960E+00
 cg2d: Sum(rhs),rhsMax =   1.52697357776825E+00  8.23373653148554E+00
(PID.TID 0000.0001)      cg2d_init_res =   1.25697202666991E+01
(PID.TID 0000.0001)      cg2d_iters(min,last) =      -1      31
(PID.TID 0000.0001)      cg2d_last_res =   1.34651746844687E-05
(PID.TID 0000.0001) // =======================================================
(PID.TID 0000.0001) // Begin MONITOR dynamic field statistics
(PID.TID 0000.0001) // =======================================================
(PID.TID 0000.0001) %MON time_tsnumber                =                     2
(PID.TID 0000.0001) %MON time_secondsf                =   7.2000000000000E+03
(PID.TID 0000.0001) %MON dynstat_eta_max              =   7.7149458207496E-01
(PID.TID 0000.0001) %MON dynstat_eta_min              =  -6.4992341816261E-01
(PID.TID 0000.0001) %MON dynstat_eta_mean             =  -3.2880529874424E-04
(PID.TID 0000.0001) %MON dynstat_eta_sd               =   1.8101580639195E-01
(PID.TID 0000.0001) %MON dynstat_eta_del2             =   1.2545155854960E-03
(PID.TID 0000.0001) %MON dynstat_uvel_max             =   4.2886044819174E-01
(PID.TID 0000.0001) %MON dynstat_uvel_min             =  -3.2920762798195E-01
(PID.TID 0000.0001) %MON dynstat_uvel_mean            =  -5.0998347838189E-04
(PID.TID 0000.0001) %MON dynstat_uvel_sd              =   1.1137794926156E-02
(PID.TID 0000.0001) %MON dynstat_uvel_del2            =   3.4627335658451E-05
(PID.TID 0000.0001) %MON dynstat_vvel_max             =   6.2939500885141E-01
(PID.TID 0000.0001) %MON dynstat_vvel_min             =  -4.8458585495803E-01
(PID.TID 0000.0001) %MON dynstat_vvel_mean            =  -2.8952284162011E-04
(PID.TID 0000.0001) %MON dynstat_vvel_sd              =   1.1944892958990E-02
(PID.TID 0000.0001) %MON dynstat_vvel_del2            =   3.6806403614806E-05
(PID.TID 0000.0001) %MON dynstat_wvel_max             =   1.2775862932552E-03
(PID.TID 0000.0001) %MON dynstat_wvel_min             =  -8.5195447078257E-04
(PID.TID 0000.0001) %MON dynstat_wvel_mean            =  -4.3260712084166E-07
(PID.TID 0000.0001) %MON dynstat_wvel_sd              =   3.5319705134503E-05
(PID.TID 0000.0001) %MON dynstat_wvel_del2            =   1.3415523367346E-07
(PID.TID 0000.0001) %MON dynstat_theta_max            =   3.0155011864935E+01
(PID.TID 0000.0001) %MON dynstat_theta_min            =  -1.9415803917415E+00
(PID.TID 0000.0001) %MON dynstat_theta_mean           =   3.5950191511319E+00
(PID.TID 0000.0001) %MON dynstat_theta_sd             =   4.4461503990541E+00
(PID.TID 0000.0001) %MON dynstat_theta_del2           =   1.6298190765531E-03
(PID.TID 0000.0001) %MON dynstat_salt_max             =   4.1000610249909E+01
(PID.TID 0000.0001) %MON dynstat_salt_min             =   2.8994047403443E+01
(PID.TID 0000.0001) %MON dynstat_salt_mean            =   3.4726327877614E+01
(PID.TID 0000.0001) %MON dynstat_salt_sd              =   4.0073441812787E-01
(PID.TID 0000.0001) %MON dynstat_salt_del2            =   3.3826905049160E-04
(PID.TID 0000.0001) %MON forcing_qnet_max             =   8.7301066866930E+02
(PID.TID 0000.0001) %MON forcing_qnet_min             =  -2.8577723286416E+02
(PID.TID 0000.0001) %MON forcing_qnet_mean            =  -2.5846666770356E+01
(PID.TID 0000.0001) %MON forcing_qnet_sd              =   1.3373072887508E+02
(PID.TID 0000.0001) %MON forcing_qnet_del2            =   1.2809417568037E+00
(PID.TID 0000.0001) %MON forcing_qsw_max              =   0.0000000000000E+00
(PID.TID 0000.0001) %MON forcing_qsw_min              =  -3.0810277943071E+02
(PID.TID 0000.0001) %MON forcing_qsw_mean             =  -1.8591942749389E+02
(PID.TID 0000.0001) %MON forcing_qsw_sd               =   8.1397454301172E+01
(PID.TID 0000.0001) %MON forcing_qsw_del2             =   1.7177348678963E-01
(PID.TID 0000.0001) %MON forcing_empmr_max            =   2.5509734036945E-03
(PID.TID 0000.0001) %MON forcing_empmr_min            =  -1.2371361059646E-04
(PID.TID 0000.0001) %MON forcing_empmr_mean           =   4.6711415571932E-05
(PID.TID 0000.0001) %MON forcing_empmr_sd             =   2.6646946315366E-04
(PID.TID 0000.0001) %MON forcing_empmr_del2           =   2.5921563968943E-06
(PID.TID 0000.0001) %MON forcing_fu_max               =   1.1845141542944E+00
(PID.TID 0000.0001) %MON forcing_fu_min               =  -7.9788679421456E-01
(PID.TID 0000.0001) %MON forcing_fu_mean              =  -6.6696984944781E-03
(PID.TID 0000.0001) %MON forcing_fu_sd                =   1.1556278330124E-01
(PID.TID 0000.0001) %MON forcing_fu_del2              =   1.5194363777738E-03
(PID.TID 0000.0001) %MON forcing_fv_max               =   1.6353837065647E+00
(PID.TID 0000.0001) %MON forcing_fv_min               =  -1.0508104262232E+00
(PID.TID 0000.0001) %MON forcing_fv_mean              =  -2.0969085393087E-02
(PID.TID 0000.0001) %MON forcing_fv_sd                =   1.1751005000237E-01
(PID.TID 0000.0001) %MON forcing_fv_del2              =   1.5953892188205E-03
(PID.TID 0000.0001) %MON advcfl_uvel_max              =   5.2428971915843E-03
(PID.TID 0000.0001) %MON advcfl_vvel_max              =   7.5392051585543E-03
(PID.TID 0000.0001) %MON advcfl_wvel_max              =   6.4328846365533E-02
(PID.TID 0000.0001) %MON advcfl_W_hf_max              =   6.7174580436254E-02
(PID.TID 0000.0001) %MON pe_b_mean                    =   4.3170574253973E-05
(PID.TID 0000.0001) %MON ke_max                       =   1.8017008736381E-01
(PID.TID 0000.0001) %MON ke_mean                      =   1.2295186658811E-04
(PID.TID 0000.0001) %MON ke_vol                       =   1.3542979625808E+18
(PID.TID 0000.0001) %MON vort_r_min                   =  -1.5307604591003E-06
(PID.TID 0000.0001) %MON vort_r_max                   =   2.7209700090751E-06
(PID.TID 0000.0001) %MON vort_a_mean                  =  -1.9720793743754E-05
(PID.TID 0000.0001) %MON vort_a_sd                    =   7.5194081329232E-05
(PID.TID 0000.0001) %MON vort_p_mean                  =  -2.3385746079984E-05
(PID.TID 0000.0001) %MON vort_p_sd                    =   1.1229942003389E-04
(PID.TID 0000.0001) %MON surfExpan_theta_mean         =   3.0835558555040E-05
(PID.TID 0000.0001) %MON surfExpan_salt_mean          =   1.0332828041311E-06
(PID.TID 0000.0001) // =======================================================
(PID.TID 0000.0001) // End MONITOR dynamic field statistics
(PID.TID 0000.0001) // =======================================================
(PID.TID 0000.0001) // =======================================================
(PID.TID 0000.0001) // Begin MONITOR SEAICE statistics
(PID.TID 0000.0001) // =======================================================
(PID.TID 0000.0001) %MON seaice_tsnumber              =                     2
(PID.TID 0000.0001) %MON seaice_time_sec              =   7.2000000000000E+03
(PID.TID 0000.0001) %MON seaice_uice_max              =   4.0000000000000E-01
(PID.TID 0000.0001) %MON seaice_uice_min              =  -4.0000000000000E-01
(PID.TID 0000.0001) %MON seaice_uice_mean             =  -1.0677224285582E-02
(PID.TID 0000.0001) %MON seaice_uice_sd               =   1.0561021620247E-01
(PID.TID 0000.0001) %MON seaice_uice_del2             =   1.3843152597621E-03
(PID.TID 0000.0001) %MON seaice_vice_max              =   4.0000000000000E-01
(PID.TID 0000.0001) %MON seaice_vice_min              =  -4.0000000000000E-01
(PID.TID 0000.0001) %MON seaice_vice_mean             =  -2.8384336924912E-02
(PID.TID 0000.0001) %MON seaice_vice_sd               =   1.0030070114836E-01
(PID.TID 0000.0001) %MON seaice_vice_del2             =   1.3490617551037E-03
(PID.TID 0000.0001) %MON seaice_area_max              =   4.2316610831237E-02
(PID.TID 0000.0001) %MON seaice_area_min              =   0.0000000000000E+00
(PID.TID 0000.0001) %MON seaice_area_mean             =   8.2151899265474E-04
(PID.TID 0000.0001) %MON seaice_area_sd               =   4.4433173167457E-03
(PID.TID 0000.0001) %MON seaice_area_del2             =   4.2069671225622E-05
(PID.TID 0000.0001) %MON seaice_heff_max              =   1.9985149435773E-02
(PID.TID 0000.0001) %MON seaice_heff_min              =   0.0000000000000E+00
(PID.TID 0000.0001) %MON seaice_heff_mean             =   3.7179066075314E-04
(PID.TID 0000.0001) %MON seaice_heff_sd               =   2.0562010400950E-03
(PID.TID 0000.0001) %MON seaice_heff_del2             =   1.9770376440200E-05
(PID.TID 0000.0001) %MON seaice_hsnow_max             =   3.8515326362500E-06
(PID.TID 0000.0001) %MON seaice_hsnow_min             =   0.0000000000000E+00
(PID.TID 0000.0001) %MON seaice_hsnow_mean            =   3.3791280225800E-08
(PID.TID 0000.0001) %MON seaice_hsnow_sd              =   2.1330417351070E-07
(PID.TID 0000.0001) %MON seaice_hsnow_del2            =   2.9935128849891E-09
(PID.TID 0000.0001) // =======================================================
(PID.TID 0000.0001) // End MONITOR SEAICE statistics
(PID.TID 0000.0001) // =======================================================
(PID.TID 0000.0001) // =======================================================
(PID.TID 0000.0001) // Begin MONITOR EXF statistics
(PID.TID 0000.0001) // =======================================================
(PID.TID 0000.0001) %MON exf_tsnumber                 =                     2
(PID.TID 0000.0001) %MON exf_time_sec                 =   7.2000000000000E+03
(PID.TID 0000.0001) %MON exf_ustress_max              =   1.3804934901398E+00
(PID.TID 0000.0001) %MON exf_ustress_min              =  -1.0625427780548E+00
(PID.TID 0000.0001) %MON exf_ustress_mean             =  -6.2958860209476E-03
(PID.TID 0000.0001) %MON exf_ustress_sd               =   1.2365246226764E-01
(PID.TID 0000.0001) %MON exf_ustress_del2             =   2.0719433697840E-03
(PID.TID 0000.0001) %MON exf_vstress_max              =   1.9350726183205E+00
(PID.TID 0000.0001) %MON exf_vstress_min              =  -1.1098269578948E+00
(PID.TID 0000.0001) %MON exf_vstress_mean             =  -2.0697151891141E-02
(PID.TID 0000.0001) %MON exf_vstress_sd               =   1.2473697652332E-01
(PID.TID 0000.0001) %MON exf_vstress_del2             =   2.0422854042832E-03
(PID.TID 0000.0001) %MON exf_hflux_max                =   9.3296438538438E+02
(PID.TID 0000.0001) %MON exf_hflux_min                =  -3.0209634287880E+02
(PID.TID 0000.0001) %MON exf_hflux_mean               =  -9.7950463415571E+00
(PID.TID 0000.0001) %MON exf_hflux_sd                 =   1.7048015649353E+02
(PID.TID 0000.0001) %MON exf_hflux_del2               =   1.9540816744011E+00
(PID.TID 0000.0001) %MON exf_sflux_max                =   1.9623204609087E-07
(PID.TID 0000.0001) %MON exf_sflux_min                =  -1.1928804646261E-07
(PID.TID 0000.0001) %MON exf_sflux_mean               =   1.8286611486370E-09
(PID.TID 0000.0001) %MON exf_sflux_sd                 =   3.4752807786572E-08
(PID.TID 0000.0001) %MON exf_sflux_del2               =   4.9664848384005E-10
(PID.TID 0000.0001) %MON exf_uwind_max                =   2.3362609121512E+01
(PID.TID 0000.0001) %MON exf_uwind_min                =  -2.0010170945956E+01
(PID.TID 0000.0001) %MON exf_uwind_mean               =  -5.3546021455717E-01
(PID.TID 0000.0001) %MON exf_uwind_sd                 =   6.0077171273651E+00
(PID.TID 0000.0001) %MON exf_uwind_del2               =   8.5651241151945E-02
(PID.TID 0000.0001) %MON exf_vwind_max                =   2.6407284425580E+01
(PID.TID 0000.0001) %MON exf_vwind_min                =  -1.9935248047561E+01
(PID.TID 0000.0001) %MON exf_vwind_mean               =  -1.6622684381680E+00
(PID.TID 0000.0001) %MON exf_vwind_sd                 =   5.8893788788418E+00
(PID.TID 0000.0001) %MON exf_vwind_del2               =   8.7397876695318E-02
(PID.TID 0000.0001) %MON exf_wspeed_max               =   2.6409713750035E+01
(PID.TID 0000.0001) %MON exf_wspeed_min               =   3.0493174862650E-01
(PID.TID 0000.0001) %MON exf_wspeed_mean              =   7.9091469168305E+00
(PID.TID 0000.0001) %MON exf_wspeed_sd                =   3.3574838362795E+00
(PID.TID 0000.0001) %MON exf_wspeed_del2              =   9.3552081007714E-02
(PID.TID 0000.0001) %MON exf_atemp_max                =   3.0335556946636E+02
(PID.TID 0000.0001) %MON exf_atemp_min                =   2.3193997711843E+02
(PID.TID 0000.0001) %MON exf_atemp_mean               =   2.8925575264114E+02
(PID.TID 0000.0001) %MON exf_atemp_sd                 =   1.2620790142095E+01
(PID.TID 0000.0001) %MON exf_atemp_del2               =   1.5216643861187E-01
(PID.TID 0000.0001) %MON exf_aqh_max                  =   2.1591946486677E-02
(PID.TID 0000.0001) %MON exf_aqh_min                  =  -8.0521899733026E-04
(PID.TID 0000.0001) %MON exf_aqh_mean                 =   1.1113554851881E-02
(PID.TID 0000.0001) %MON exf_aqh_sd                   =   5.7788679701839E-03
(PID.TID 0000.0001) %MON exf_aqh_del2                 =   9.2750966976554E-05
(PID.TID 0000.0001) %MON exf_lwflux_max               =   1.4041454845698E+02
(PID.TID 0000.0001) %MON exf_lwflux_min               =   2.1469336455355E+01
(PID.TID 0000.0001) %MON exf_lwflux_mean              =   5.7488731100797E+01
(PID.TID 0000.0001) %MON exf_lwflux_sd                =   1.7682145795348E+01
(PID.TID 0000.0001) %MON exf_lwflux_del2              =   4.3484485544764E-01
(PID.TID 0000.0001) %MON exf_precip_max               =   1.3952202593044E-07
(PID.TID 0000.0001) %MON exf_precip_min               =   5.3281786289283E-10
(PID.TID 0000.0001) %MON exf_precip_mean              =   3.5682517043986E-08
(PID.TID 0000.0001) %MON exf_precip_sd                =   2.7035955953610E-08
(PID.TID 0000.0001) %MON exf_precip_del2              =   3.5133667034981E-10
(PID.TID 0000.0001) %MON exf_swflux_max               =  -0.0000000000000E+00
(PID.TID 0000.0001) %MON exf_swflux_min               =  -3.0822007805507E+02
(PID.TID 0000.0001) %MON exf_swflux_mean              =  -1.8592838177972E+02
(PID.TID 0000.0001) %MON exf_swflux_sd                =   8.1374007675622E+01
(PID.TID 0000.0001) %MON exf_swflux_del2              =   1.4905145237257E+00
(PID.TID 0000.0001) %MON exf_evap_max                 =   2.3080699884867E-07
(PID.TID 0000.0001) %MON exf_evap_min                 =  -3.8416647874767E-08
(PID.TID 0000.0001) %MON exf_evap_mean                =   3.7511178192623E-08
(PID.TID 0000.0001) %MON exf_evap_sd                  =   2.6148511819923E-08
(PID.TID 0000.0001) %MON exf_evap_del2                =   5.1311525251219E-10
(PID.TID 0000.0001) %MON exf_swdown_max               =   3.3000008357074E+02
(PID.TID 0000.0001) %MON exf_swdown_min               =   0.0000000000000E+00
(PID.TID 0000.0001) %MON exf_swdown_mean              =   1.9906678991405E+02
(PID.TID 0000.0001) %MON exf_swdown_sd                =   8.7124205220152E+01
(PID.TID 0000.0001) %MON exf_swdown_del2              =   1.5958399611624E+00
(PID.TID 0000.0001) %MON exf_lwdown_max               =   4.3311745988668E+02
(PID.TID 0000.0001) %MON exf_lwdown_min               =   1.7145585457904E+02
(PID.TID 0000.0001) %MON exf_lwdown_mean              =   3.5336133373691E+02
(PID.TID 0000.0001) %MON exf_lwdown_sd                =   5.7644206765705E+01
(PID.TID 0000.0001) %MON exf_lwdown_del2              =   2.6118634371158E+00
(PID.TID 0000.0001) %MON exf_climsss_max              =   3.9969883734180E+01
(PID.TID 0000.0001) %MON exf_climsss_min              =   1.7857444619620E+01
(PID.TID 0000.0001) %MON exf_climsss_mean             =   3.4682918388776E+01
(PID.TID 0000.0001) %MON exf_climsss_sd               =   1.4108091793549E+00
(PID.TID 0000.0001) %MON exf_climsss_del2             =   4.9147138764479E-03
(PID.TID 0000.0001) // =======================================================
(PID.TID 0000.0001) // End MONITOR EXF statistics
(PID.TID 0000.0001) // =======================================================
 SEAICE_LSR: Residual Initial ipass,Uice,Vice=    1  1.43107662E-01  1.48269686E-01
 SEAICE_LSR: Residual FrDrift U_fd,V_fd=  1.15562955E-01  1.13644901E-01
 SEAICE_LSR (ipass=   1) iters,dU,Resid=     6  1.20417123E-06  2.23605722E-09
 SEAICE_LSR (ipass=   1) iters,dV,Resid=     6  8.54036926E-07  2.31671384E-09
 SEAICE_LSR: Residual Initial ipass,Uice,Vice=    2  7.14979094E-01  6.00890434E-01
 SEAICE_LSR: Residual FrDrift U_fd,V_fd=  1.65041012E-01  1.51751894E-01
 SEAICE_LSR (ipass=   2) iters,dU,Resid=     6  5.47801235E-07  1.11715483E-08
 SEAICE_LSR (ipass=   2) iters,dV,Resid=     6  3.96531869E-07  9.38891304E-09
 cg2d: Sum(rhs),rhsMax =   2.27601764106782E+00  7.98039283413323E+00
 cg2d: Sum(rhs),rhsMax =   3.02165606500816E+00  7.75066850268105E+00
(PID.TID 0000.0001)      cg2d_init_res =   6.86195262891438E+00
(PID.TID 0000.0001)      cg2d_iters(min,last) =      -1      31
(PID.TID 0000.0001)      cg2d_last_res =   1.20184852880607E-05
(PID.TID 0000.0001) // =======================================================
(PID.TID 0000.0001) // Begin MONITOR dynamic field statistics
(PID.TID 0000.0001) // =======================================================
(PID.TID 0000.0001) %MON time_tsnumber                =                     4
(PID.TID 0000.0001) %MON time_secondsf                =   1.4400000000000E+04
(PID.TID 0000.0001) %MON dynstat_eta_max              =   1.0900006042806E+00
(PID.TID 0000.0001) %MON dynstat_eta_min              =  -9.6379905095509E-01
(PID.TID 0000.0001) %MON dynstat_eta_mean             =  -6.5316966894674E-04
(PID.TID 0000.0001) %MON dynstat_eta_sd               =   3.1514926512609E-01
(PID.TID 0000.0001) %MON dynstat_eta_del2             =   1.1634681385925E-03
(PID.TID 0000.0001) %MON dynstat_uvel_max             =   4.6546193031072E-01
(PID.TID 0000.0001) %MON dynstat_uvel_min             =  -3.9615610560854E-01
(PID.TID 0000.0001) %MON dynstat_uvel_mean            =  -1.7197221399295E-03
(PID.TID 0000.0001) %MON dynstat_uvel_sd              =   1.6648765186804E-02
(PID.TID 0000.0001) %MON dynstat_uvel_del2            =   6.0783081900858E-05
(PID.TID 0000.0001) %MON dynstat_vvel_max             =   8.3764259353966E-01
(PID.TID 0000.0001) %MON dynstat_vvel_min             =  -4.5768047526676E-01
(PID.TID 0000.0001) %MON dynstat_vvel_mean            =  -1.3556105545825E-03
(PID.TID 0000.0001) %MON dynstat_vvel_sd              =   1.8559252415045E-02
(PID.TID 0000.0001) %MON dynstat_vvel_del2            =   6.4524372777316E-05
(PID.TID 0000.0001) %MON dynstat_wvel_max             =   2.4534692663869E-03
(PID.TID 0000.0001) %MON dynstat_wvel_min             =  -1.6959308538640E-03
(PID.TID 0000.0001) %MON dynstat_wvel_mean            =  -2.3710202310830E-07
(PID.TID 0000.0001) %MON dynstat_wvel_sd              =   5.6299612783629E-05
(PID.TID 0000.0001) %MON dynstat_wvel_del2            =   2.2445071665275E-07
(PID.TID 0000.0001) %MON dynstat_theta_max            =   3.0154466233147E+01
(PID.TID 0000.0001) %MON dynstat_theta_min            =  -1.9396259127076E+00
(PID.TID 0000.0001) %MON dynstat_theta_mean           =   3.5950346734772E+00
(PID.TID 0000.0001) %MON dynstat_theta_sd             =   4.4461506863502E+00
(PID.TID 0000.0001) %MON dynstat_theta_del2           =   1.6271556614182E-03
(PID.TID 0000.0001) %MON dynstat_salt_max             =   4.0987216820714E+01
(PID.TID 0000.0001) %MON dynstat_salt_min             =   2.8987645837110E+01
(PID.TID 0000.0001) %MON dynstat_salt_mean            =   3.4726330463728E+01
(PID.TID 0000.0001) %MON dynstat_salt_sd              =   4.0070201023931E-01
(PID.TID 0000.0001) %MON dynstat_salt_del2            =   3.3772556646599E-04
(PID.TID 0000.0001) %MON forcing_qnet_max             =   8.7921404772693E+02
(PID.TID 0000.0001) %MON forcing_qnet_min             =  -3.1700631047250E+02
(PID.TID 0000.0001) %MON forcing_qnet_mean            =  -2.4511492428246E+01
(PID.TID 0000.0001) %MON forcing_qnet_sd              =   1.3573640488146E+02
(PID.TID 0000.0001) %MON forcing_qnet_del2            =   1.3631675465175E+00
(PID.TID 0000.0001) %MON forcing_qsw_max              =   0.0000000000000E+00
(PID.TID 0000.0001) %MON forcing_qsw_min              =  -3.0833737667944E+02
(PID.TID 0000.0001) %MON forcing_qsw_mean             =  -1.8593389429364E+02
(PID.TID 0000.0001) %MON forcing_qsw_sd               =   8.1359313076742E+01
(PID.TID 0000.0001) %MON forcing_qsw_del2             =   1.6607394531211E-01
(PID.TID 0000.0001) %MON forcing_empmr_max            =   2.3817323322446E-03
(PID.TID 0000.0001) %MON forcing_empmr_min            =  -1.1938750984819E-04
(PID.TID 0000.0001) %MON forcing_empmr_mean           =   4.6286056277205E-05
(PID.TID 0000.0001) %MON forcing_empmr_sd             =   2.6253412784708E-04
(PID.TID 0000.0001) %MON forcing_empmr_del2           =   2.4782410546962E-06
(PID.TID 0000.0001) %MON forcing_fu_max               =   1.4933423489569E+00
(PID.TID 0000.0001) %MON forcing_fu_min               =  -1.0758084834915E+00
(PID.TID 0000.0001) %MON forcing_fu_mean              =  -6.8839582436112E-03
(PID.TID 0000.0001) %MON forcing_fu_sd                =   1.2822528197755E-01
(PID.TID 0000.0001) %MON forcing_fu_del2              =   1.8422152269668E-03
(PID.TID 0000.0001) %MON forcing_fv_max               =   2.0000000000000E+00
(PID.TID 0000.0001) %MON forcing_fv_min               =  -9.4912777351135E-01
(PID.TID 0000.0001) %MON forcing_fv_mean              =  -2.1650867009817E-02
(PID.TID 0000.0001) %MON forcing_fv_sd                =   1.2734384181759E-01
(PID.TID 0000.0001) %MON forcing_fv_del2              =   1.7868671412916E-03
(PID.TID 0000.0001) %MON advcfl_uvel_max              =   6.4566865637594E-03
(PID.TID 0000.0001) %MON advcfl_vvel_max              =   9.8667907870746E-03
(PID.TID 0000.0001) %MON advcfl_wvel_max              =   1.2178730590108E-01
(PID.TID 0000.0001) %MON advcfl_W_hf_max              =   1.2716689582118E-01
(PID.TID 0000.0001) %MON pe_b_mean                    =   1.3083695035553E-04
(PID.TID 0000.0001) %MON ke_max                       =   1.7929227643312E-01
(PID.TID 0000.0001) %MON ke_mean                      =   2.8844119384090E-04
(PID.TID 0000.0001) %MON ke_vol                       =   1.3542978440074E+18
(PID.TID 0000.0001) %MON vort_r_min                   =  -2.7602895591952E-06
(PID.TID 0000.0001) %MON vort_r_max                   =   2.7211799804293E-06
(PID.TID 0000.0001) %MON vort_a_mean                  =  -1.9720793743754E-05
(PID.TID 0000.0001) %MON vort_a_sd                    =   7.5193095788098E-05
(PID.TID 0000.0001) %MON vort_p_mean                  =  -2.3385737826701E-05
(PID.TID 0000.0001) %MON vort_p_sd                    =   1.1229622367775E-04
(PID.TID 0000.0001) %MON surfExpan_theta_mean         =   2.7402183477897E-05
(PID.TID 0000.0001) %MON surfExpan_salt_mean          =   1.1291930054667E-06
(PID.TID 0000.0001) // =======================================================
(PID.TID 0000.0001) // End MONITOR dynamic field statistics
(PID.TID 0000.0001) // =======================================================
(PID.TID 0000.0001) // =======================================================
(PID.TID 0000.0001) // Begin MONITOR SEAICE statistics
(PID.TID 0000.0001) // =======================================================
(PID.TID 0000.0001) %MON seaice_tsnumber              =                     4
(PID.TID 0000.0001) %MON seaice_time_sec              =   1.4400000000000E+04
(PID.TID 0000.0001) %MON seaice_uice_max              =   4.0000000000000E-01
(PID.TID 0000.0001) %MON seaice_uice_min              =  -4.0000000000000E-01
(PID.TID 0000.0001) %MON seaice_uice_mean             =  -1.6265805436799E-02
(PID.TID 0000.0001) %MON seaice_uice_sd               =   1.6328531970672E-01
(PID.TID 0000.0001) %MON seaice_uice_del2             =   2.0463798434903E-03
(PID.TID 0000.0001) %MON seaice_vice_max              =   4.0000000000000E-01
(PID.TID 0000.0001) %MON seaice_vice_min              =  -4.0000000000000E-01
(PID.TID 0000.0001) %MON seaice_vice_mean             =  -4.5201286699204E-02
(PID.TID 0000.0001) %MON seaice_vice_sd               =   1.5861630002887E-01
(PID.TID 0000.0001) %MON seaice_vice_del2             =   2.0925919787643E-03
(PID.TID 0000.0001) %MON seaice_area_max              =   8.4037768330030E-02
(PID.TID 0000.0001) %MON seaice_area_min              =   0.0000000000000E+00
(PID.TID 0000.0001) %MON seaice_area_mean             =   1.7185050049195E-03
(PID.TID 0000.0001) %MON seaice_area_sd               =   9.1432894426037E-03
(PID.TID 0000.0001) %MON seaice_area_del2             =   8.5498890791118E-05
(PID.TID 0000.0001) %MON seaice_heff_max              =   3.8672995788513E-02
(PID.TID 0000.0001) %MON seaice_heff_min              =   0.0000000000000E+00
(PID.TID 0000.0001) %MON seaice_heff_mean             =   7.3851543151891E-04
(PID.TID 0000.0001) %MON seaice_heff_sd               =   4.0696195512797E-03
(PID.TID 0000.0001) %MON seaice_heff_del2             =   3.8091522376067E-05
(PID.TID 0000.0001) %MON seaice_hsnow_max             =   2.2787064561742E-05
(PID.TID 0000.0001) %MON seaice_hsnow_min             =   0.0000000000000E+00
(PID.TID 0000.0001) %MON seaice_hsnow_mean            =   1.8953534541645E-07
(PID.TID 0000.0001) %MON seaice_hsnow_sd              =   1.1994419145843E-06
(PID.TID 0000.0001) %MON seaice_hsnow_del2            =   2.0121073148343E-08
(PID.TID 0000.0001) // =======================================================
(PID.TID 0000.0001) // End MONITOR SEAICE statistics
(PID.TID 0000.0001) // =======================================================
(PID.TID 0000.0001) // =======================================================
(PID.TID 0000.0001) // Begin MONITOR EXF statistics
(PID.TID 0000.0001) // =======================================================
(PID.TID 0000.0001) %MON exf_tsnumber                 =                     4
(PID.TID 0000.0001) %MON exf_time_sec                 =   1.4400000000000E+04
(PID.TID 0000.0001) %MON exf_ustress_max              =   1.3844270490433E+00
(PID.TID 0000.0001) %MON exf_ustress_min              =  -1.0417589822128E+00
(PID.TID 0000.0001) %MON exf_ustress_mean             =  -6.6384276600314E-03
(PID.TID 0000.0001) %MON exf_ustress_sd               =   1.2478616994259E-01
(PID.TID 0000.0001) %MON exf_ustress_del2             =   2.0841802452535E-03
(PID.TID 0000.0001) %MON exf_vstress_max              =   2.0853724430997E+00
(PID.TID 0000.0001) %MON exf_vstress_min              =  -8.4277893602445E-01
(PID.TID 0000.0001) %MON exf_vstress_mean             =  -2.0460748975253E-02
(PID.TID 0000.0001) %MON exf_vstress_sd               =   1.2540791261854E-01
(PID.TID 0000.0001) %MON exf_vstress_del2             =   2.0118677464212E-03
(PID.TID 0000.0001) %MON exf_hflux_max                =   9.1688174341251E+02
(PID.TID 0000.0001) %MON exf_hflux_min                =  -3.0463289218552E+02
(PID.TID 0000.0001) %MON exf_hflux_mean               =  -1.0187028661816E+01
(PID.TID 0000.0001) %MON exf_hflux_sd                 =   1.7000244242271E+02
(PID.TID 0000.0001) %MON exf_hflux_del2               =   1.9628280245216E+00
(PID.TID 0000.0001) %MON exf_sflux_max                =   1.8894206792837E-07
(PID.TID 0000.0001) %MON exf_sflux_min                =  -1.1883687334272E-07
(PID.TID 0000.0001) %MON exf_sflux_mean               =   1.7343478669843E-09
(PID.TID 0000.0001) %MON exf_sflux_sd                 =   3.4711019531624E-08
(PID.TID 0000.0001) %MON exf_sflux_del2               =   5.0142900722722E-10
(PID.TID 0000.0001) %MON exf_uwind_max                =   2.3182695081118E+01
(PID.TID 0000.0001) %MON exf_uwind_min                =  -2.0198948751322E+01
(PID.TID 0000.0001) %MON exf_uwind_mean               =  -5.5593456160356E-01
(PID.TID 0000.0001) %MON exf_uwind_sd                 =   6.0227235401069E+00
(PID.TID 0000.0001) %MON exf_uwind_del2               =   8.5696988030255E-02
(PID.TID 0000.0001) %MON exf_vwind_max                =   2.6951704182367E+01
(PID.TID 0000.0001) %MON exf_vwind_min                =  -1.7873572476238E+01
(PID.TID 0000.0001) %MON exf_vwind_mean               =  -1.6512137649007E+00
(PID.TID 0000.0001) %MON exf_vwind_sd                 =   5.8915018504591E+00
(PID.TID 0000.0001) %MON exf_vwind_del2               =   8.6795295775799E-02
(PID.TID 0000.0001) %MON exf_wspeed_max               =   2.7219951183493E+01
(PID.TID 0000.0001) %MON exf_wspeed_min               =   1.9899058985537E-01
(PID.TID 0000.0001) %MON exf_wspeed_mean              =   7.9195929056136E+00
(PID.TID 0000.0001) %MON exf_wspeed_sd                =   3.3613406905665E+00
(PID.TID 0000.0001) %MON exf_wspeed_del2              =   9.3871228383689E-02
(PID.TID 0000.0001) %MON exf_atemp_max                =   3.0318708226233E+02
(PID.TID 0000.0001) %MON exf_atemp_min                =   2.3221217962885E+02
(PID.TID 0000.0001) %MON exf_atemp_mean               =   2.8925304776576E+02
(PID.TID 0000.0001) %MON exf_atemp_sd                 =   1.2597993404784E+01
(PID.TID 0000.0001) %MON exf_atemp_del2               =   1.5202000603516E-01
(PID.TID 0000.0001) %MON exf_aqh_max                  =   2.1604232678911E-02
(PID.TID 0000.0001) %MON exf_aqh_min                  =  -8.3511021461176E-04
(PID.TID 0000.0001) %MON exf_aqh_mean                 =   1.1117401875187E-02
(PID.TID 0000.0001) %MON exf_aqh_sd                   =   5.7762631202966E-03
(PID.TID 0000.0001) %MON exf_aqh_del2                 =   9.2739950111696E-05
(PID.TID 0000.0001) %MON exf_lwflux_max               =   1.3923613496812E+02
(PID.TID 0000.0001) %MON exf_lwflux_min               =   2.1258447235148E+01
(PID.TID 0000.0001) %MON exf_lwflux_mean              =   5.7462508347310E+01
(PID.TID 0000.0001) %MON exf_lwflux_sd                =   1.7625796034420E+01
(PID.TID 0000.0001) %MON exf_lwflux_del2              =   4.3452031314038E-01
(PID.TID 0000.0001) %MON exf_precip_max               =   1.3952384585115E-07
(PID.TID 0000.0001) %MON exf_precip_min               =   5.3077344114464E-10
(PID.TID 0000.0001) %MON exf_precip_mean              =   3.5682119318092E-08
(PID.TID 0000.0001) %MON exf_precip_sd                =   2.7040348785954E-08
(PID.TID 0000.0001) %MON exf_precip_del2              =   3.5132492275588E-10
(PID.TID 0000.0001) %MON exf_swflux_max               =  -0.0000000000000E+00
(PID.TID 0000.0001) %MON exf_swflux_min               =  -3.0845467530380E+02
(PID.TID 0000.0001) %MON exf_swflux_mean              =  -1.8594498934906E+02
(PID.TID 0000.0001) %MON exf_swflux_sd                =   8.1334977965151E+01
(PID.TID 0000.0001) %MON exf_swflux_del2              =   1.4904150598609E+00
(PID.TID 0000.0001) %MON exf_evap_max                 =   2.2352279639213E-07
(PID.TID 0000.0001) %MON exf_evap_min                 =  -3.8337515662971E-08
(PID.TID 0000.0001) %MON exf_evap_mean                =   3.7416467185076E-08
(PID.TID 0000.0001) %MON exf_evap_sd                  =   2.6208887665600E-08
(PID.TID 0000.0001) %MON exf_evap_del2                =   5.1871808898911E-10
(PID.TID 0000.0001) %MON exf_swdown_max               =   3.3025125835525E+02
(PID.TID 0000.0001) %MON exf_swdown_min               =   0.0000000000000E+00
(PID.TID 0000.0001) %MON exf_swdown_mean              =   1.9908457103754E+02
(PID.TID 0000.0001) %MON exf_swdown_sd                =   8.7082417521575E+01
(PID.TID 0000.0001) %MON exf_swdown_del2              =   1.5957334688018E+00
(PID.TID 0000.0001) %MON exf_lwdown_max               =   4.3277303775860E+02
(PID.TID 0000.0001) %MON exf_lwdown_min               =   1.7252053850229E+02
(PID.TID 0000.0001) %MON exf_lwdown_mean              =   3.5335818497133E+02
(PID.TID 0000.0001) %MON exf_lwdown_sd                =   5.7612778170263E+01
(PID.TID 0000.0001) %MON exf_lwdown_del2              =   2.6113817908779E+00
(PID.TID 0000.0001) %MON exf_climsss_max              =   3.9969207825199E+01
(PID.TID 0000.0001) %MON exf_climsss_min              =   1.7859735324819E+01
(PID.TID 0000.0001) %MON exf_climsss_mean             =   3.4682941365048E+01
(PID.TID 0000.0001) %MON exf_climsss_sd               =   1.4106306244971E+00
(PID.TID 0000.0001) %MON exf_climsss_del2             =   4.9150146478629E-03
(PID.TID 0000.0001) // =======================================================
(PID.TID 0000.0001) // End MONITOR EXF statistics
(PID.TID 0000.0001) // =======================================================
 SEAICE_LSR: Residual Initial ipass,Uice,Vice=    1  1.04312183E-01  1.08622696E-01
 SEAICE_LSR: Residual FrDrift U_fd,V_fd=  8.10097557E-02  7.79689887E-02
 SEAICE_LSR (ipass=   1) iters,dU,Resid=     6  1.02451417E-06  1.62987787E-09
 SEAICE_LSR (ipass=   1) iters,dV,Resid=     6  8.08858927E-07  1.69722962E-09
 SEAICE_LSR: Residual Initial ipass,Uice,Vice=    2  3.87341722E-01  2.23861525E-01
 SEAICE_LSR: Residual FrDrift U_fd,V_fd=  8.51512260E-02  6.11365742E-02
 SEAICE_LSR (ipass=   2) iters,dU,Resid=     4  1.82977457E-04  2.42088576E-06
 SEAICE_LSR (ipass=   2) iters,dV,Resid=     4  1.33925934E-04  1.39913453E-06
 cg2d: Sum(rhs),rhsMax =   3.74608557507682E+00  7.66158157204235E+00
 cg2d: Sum(rhs),rhsMax =   4.45761409653062E+00  7.62173353286032E+00
(PID.TID 0000.0001)      cg2d_init_res =   4.97242084942115E+00
(PID.TID 0000.0001)      cg2d_iters(min,last) =      -1      30
(PID.TID 0000.0001)      cg2d_last_res =   1.33750431495378E-05
(PID.TID 0000.0001) // =======================================================
(PID.TID 0000.0001) // Begin MONITOR dynamic field statistics
(PID.TID 0000.0001) // =======================================================
(PID.TID 0000.0001) %MON time_tsnumber                =                     6
(PID.TID 0000.0001) %MON time_secondsf                =   2.1600000000000E+04
(PID.TID 0000.0001) %MON dynstat_eta_max              =   1.1387042918132E+00
(PID.TID 0000.0001) %MON dynstat_eta_min              =  -1.1277828985056E+00
(PID.TID 0000.0001) %MON dynstat_eta_mean             =  -9.6548815016567E-04
(PID.TID 0000.0001) %MON dynstat_eta_sd               =   3.7170638234332E-01
(PID.TID 0000.0001) %MON dynstat_eta_del2             =   1.1472571282851E-03
(PID.TID 0000.0001) %MON dynstat_uvel_max             =   5.7256337902180E-01
(PID.TID 0000.0001) %MON dynstat_uvel_min             =  -4.7736886572558E-01
(PID.TID 0000.0001) %MON dynstat_uvel_mean            =  -2.3505569232609E-03
(PID.TID 0000.0001) %MON dynstat_uvel_sd              =   2.0479073578298E-02
(PID.TID 0000.0001) %MON dynstat_uvel_del2            =   8.3106665106974E-05
(PID.TID 0000.0001) %MON dynstat_vvel_max             =   1.1819685464438E+00
(PID.TID 0000.0001) %MON dynstat_vvel_min             =  -6.5125557498084E-01
(PID.TID 0000.0001) %MON dynstat_vvel_mean            =  -2.1409210029294E-03
(PID.TID 0000.0001) %MON dynstat_vvel_sd              =   2.2684007842612E-02
(PID.TID 0000.0001) %MON dynstat_vvel_del2            =   8.8300139694355E-05
(PID.TID 0000.0001) %MON dynstat_wvel_max             =   3.5365507464396E-03
(PID.TID 0000.0001) %MON dynstat_wvel_min             =  -2.5135410387018E-03
(PID.TID 0000.0001) %MON dynstat_wvel_mean            =   6.2894393391998E-08
(PID.TID 0000.0001) %MON dynstat_wvel_sd              =   6.9209499839187E-05
(PID.TID 0000.0001) %MON dynstat_wvel_del2            =   2.9360718727674E-07
(PID.TID 0000.0001) %MON dynstat_theta_max            =   3.0153490931412E+01
(PID.TID 0000.0001) %MON dynstat_theta_min            =  -1.9029464431507E+00
(PID.TID 0000.0001) %MON dynstat_theta_mean           =   3.5950597666630E+00
(PID.TID 0000.0001) %MON dynstat_theta_sd             =   4.4461718487002E+00
(PID.TID 0000.0001) %MON dynstat_theta_del2           =   1.6208925741362E-03
(PID.TID 0000.0001) %MON dynstat_salt_max             =   4.0976386170397E+01
(PID.TID 0000.0001) %MON dynstat_salt_min             =   2.8981819725389E+01
(PID.TID 0000.0001) %MON dynstat_salt_mean            =   3.4726333692929E+01
(PID.TID 0000.0001) %MON dynstat_salt_sd              =   4.0067566659651E-01
(PID.TID 0000.0001) %MON dynstat_salt_del2            =   3.3721066386773E-04
(PID.TID 0000.0001) %MON forcing_qnet_max             =   8.2890679054819E+02
(PID.TID 0000.0001) %MON forcing_qnet_min             =  -2.9393149344901E+02
(PID.TID 0000.0001) %MON forcing_qnet_mean            =  -2.6516089836177E+01
(PID.TID 0000.0001) %MON forcing_qnet_sd              =   1.3337921927556E+02
(PID.TID 0000.0001) %MON forcing_qnet_del2            =   1.2852100702009E+00
(PID.TID 0000.0001) %MON forcing_qsw_max              =   0.0000000000000E+00
(PID.TID 0000.0001) %MON forcing_qsw_min              =  -3.0857197392816E+02
(PID.TID 0000.0001) %MON forcing_qsw_mean             =  -1.8594823692219E+02
(PID.TID 0000.0001) %MON forcing_qsw_sd               =   8.1328362021911E+01
(PID.TID 0000.0001) %MON forcing_qsw_del2             =   1.6143344022525E-01
(PID.TID 0000.0001) %MON forcing_empmr_max            =   2.2778142794048E-03
(PID.TID 0000.0001) %MON forcing_empmr_min            =  -1.2249782606289E-04
(PID.TID 0000.0001) %MON forcing_empmr_mean           =   4.4148972793027E-05
(PID.TID 0000.0001) %MON forcing_empmr_sd             =   2.5107327366034E-04
(PID.TID 0000.0001) %MON forcing_empmr_del2           =   2.3254540086861E-06
(PID.TID 0000.0001) %MON forcing_fu_max               =   1.0766838529305E+00
(PID.TID 0000.0001) %MON forcing_fu_min               =  -7.6435994974180E-01
(PID.TID 0000.0001) %MON forcing_fu_mean              =  -7.4109484640029E-03
(PID.TID 0000.0001) %MON forcing_fu_sd                =   1.1770232274124E-01
(PID.TID 0000.0001) %MON forcing_fu_del2              =   1.5576212202040E-03
(PID.TID 0000.0001) %MON forcing_fv_max               =   1.6531312696025E+00
(PID.TID 0000.0001) %MON forcing_fv_min               =  -6.8048815728866E-01
(PID.TID 0000.0001) %MON forcing_fv_mean              =  -2.0518782938833E-02
(PID.TID 0000.0001) %MON forcing_fv_sd                =   1.1858586821131E-01
(PID.TID 0000.0001) %MON forcing_fv_del2              =   1.5104365040996E-03
(PID.TID 0000.0001) %MON advcfl_uvel_max              =   7.0359138056452E-03
(PID.TID 0000.0001) %MON advcfl_vvel_max              =   1.3922687855905E-02
(PID.TID 0000.0001) %MON advcfl_wvel_max              =   1.7324990686385E-01
(PID.TID 0000.0001) %MON advcfl_W_hf_max              =   1.8106207359777E-01
(PID.TID 0000.0001) %MON pe_b_mean                    =   1.8196776420668E-04
(PID.TID 0000.0001) %MON ke_max                       =   3.5147686552031E-01
(PID.TID 0000.0001) %MON ke_mean                      =   4.3469404465952E-04
(PID.TID 0000.0001) %MON ke_vol                       =   1.3542977276382E+18
(PID.TID 0000.0001) %MON vort_r_min                   =  -3.7535361103220E-06
(PID.TID 0000.0001) %MON vort_r_max                   =   3.8397631291509E-06
(PID.TID 0000.0001) %MON vort_a_mean                  =  -1.9720793743754E-05
(PID.TID 0000.0001) %MON vort_a_sd                    =   7.5192768714852E-05
(PID.TID 0000.0001) %MON vort_p_mean                  =  -2.3385734478755E-05
(PID.TID 0000.0001) %MON vort_p_sd                    =   1.1229479998474E-04
(PID.TID 0000.0001) %MON surfExpan_theta_mean         =   1.4642180203812E-05
(PID.TID 0000.0001) %MON surfExpan_salt_mean          =   4.6389083716578E-07
(PID.TID 0000.0001) // =======================================================
(PID.TID 0000.0001) // End MONITOR dynamic field statistics
(PID.TID 0000.0001) // =======================================================
(PID.TID 0000.0001) // =======================================================
(PID.TID 0000.0001) // Begin MONITOR SEAICE statistics
(PID.TID 0000.0001) // =======================================================
(PID.TID 0000.0001) %MON seaice_tsnumber              =                     6
(PID.TID 0000.0001) %MON seaice_time_sec              =   2.1600000000000E+04
(PID.TID 0000.0001) %MON seaice_uice_max              =   4.0000000000000E-01
(PID.TID 0000.0001) %MON seaice_uice_min              =  -4.0000000000000E-01
(PID.TID 0000.0001) %MON seaice_uice_mean             =  -1.8882591908221E-02
(PID.TID 0000.0001) %MON seaice_uice_sd               =   1.8856372130725E-01
(PID.TID 0000.0001) %MON seaice_uice_del2             =   2.2808431411940E-03
(PID.TID 0000.0001) %MON seaice_vice_max              =   4.0000000000000E-01
(PID.TID 0000.0001) %MON seaice_vice_min              =  -4.0000000000000E-01
(PID.TID 0000.0001) %MON seaice_vice_mean             =  -5.4664629607294E-02
(PID.TID 0000.0001) %MON seaice_vice_sd               =   1.8652751371435E-01
(PID.TID 0000.0001) %MON seaice_vice_del2             =   2.3476267246370E-03
(PID.TID 0000.0001) %MON seaice_area_max              =   1.2360204427639E-01
(PID.TID 0000.0001) %MON seaice_area_min              =   0.0000000000000E+00
(PID.TID 0000.0001) %MON seaice_area_mean             =   2.5886239124764E-03
(PID.TID 0000.0001) %MON seaice_area_sd               =   1.3669682628366E-02
(PID.TID 0000.0001) %MON seaice_area_del2             =   1.2765196107437E-04
(PID.TID 0000.0001) %MON seaice_heff_max              =   5.6496047471079E-02
(PID.TID 0000.0001) %MON seaice_heff_min              =   0.0000000000000E+00
(PID.TID 0000.0001) %MON seaice_heff_mean             =   1.0915727128568E-03
(PID.TID 0000.0001) %MON seaice_heff_sd               =   6.0053130630818E-03
(PID.TID 0000.0001) %MON seaice_heff_del2             =   5.4907352183251E-05
(PID.TID 0000.0001) %MON seaice_hsnow_max             =   5.5987925150481E-05
(PID.TID 0000.0001) %MON seaice_hsnow_min             =   0.0000000000000E+00
(PID.TID 0000.0001) %MON seaice_hsnow_mean            =   4.7314491169335E-07
(PID.TID 0000.0001) %MON seaice_hsnow_sd              =   3.0012147530401E-06
(PID.TID 0000.0001) %MON seaice_hsnow_del2            =   4.9367776384820E-08
(PID.TID 0000.0001) // =======================================================
(PID.TID 0000.0001) // End MONITOR SEAICE statistics
(PID.TID 0000.0001) // =======================================================
(PID.TID 0000.0001) // =======================================================
(PID.TID 0000.0001) // Begin MONITOR EXF statistics
(PID.TID 0000.0001) // =======================================================
(PID.TID 0000.0001) %MON exf_tsnumber                 =                     6
(PID.TID 0000.0001) %MON exf_time_sec                 =   2.1600000000000E+04
(PID.TID 0000.0001) %MON exf_ustress_max              =   1.1037075520745E+00
(PID.TID 0000.0001) %MON exf_ustress_min              =  -7.9086474387257E-01
(PID.TID 0000.0001) %MON exf_ustress_mean             =  -7.2757394710099E-03
(PID.TID 0000.0001) %MON exf_ustress_sd               =   1.1986048577719E-01
(PID.TID 0000.0001) %MON exf_ustress_del2             =   1.9240207555930E-03
(PID.TID 0000.0001) %MON exf_vstress_max              =   1.7385361182586E+00
(PID.TID 0000.0001) %MON exf_vstress_min              =  -7.8631232211696E-01
(PID.TID 0000.0001) %MON exf_vstress_mean             =  -1.9823714683294E-02
(PID.TID 0000.0001) %MON exf_vstress_sd               =   1.2112288547290E-01
(PID.TID 0000.0001) %MON exf_vstress_del2             =   1.8347809372422E-03
(PID.TID 0000.0001) %MON exf_hflux_max                =   9.2886220084052E+02
(PID.TID 0000.0001) %MON exf_hflux_min                =  -2.8476990265622E+02
(PID.TID 0000.0001) %MON exf_hflux_mean               =  -1.1271817483845E+01
(PID.TID 0000.0001) %MON exf_hflux_sd                 =   1.6836916227647E+02
(PID.TID 0000.0001) %MON exf_hflux_del2               =   1.9183401661953E+00
(PID.TID 0000.0001) %MON exf_sflux_max                =   1.7452622108921E-07
(PID.TID 0000.0001) %MON exf_sflux_min                =  -1.2342284304738E-07
(PID.TID 0000.0001) %MON exf_sflux_mean               =   1.4077665815857E-09
(PID.TID 0000.0001) %MON exf_sflux_sd                 =   3.4416297596614E-08
(PID.TID 0000.0001) %MON exf_sflux_del2               =   4.8574515130303E-10
(PID.TID 0000.0001) %MON exf_uwind_max                =   2.0472183881203E+01
(PID.TID 0000.0001) %MON exf_uwind_min                =  -1.8892726999294E+01
(PID.TID 0000.0001) %MON exf_uwind_mean               =  -5.9875629441651E-01
(PID.TID 0000.0001) %MON exf_uwind_sd                 =   5.9759295007774E+00
(PID.TID 0000.0001) %MON exf_uwind_del2               =   8.2093294037172E-02
(PID.TID 0000.0001) %MON exf_vwind_max                =   2.5398446093788E+01
(PID.TID 0000.0001) %MON exf_vwind_min                =  -1.8180781331323E+01
(PID.TID 0000.0001) %MON exf_vwind_mean               =  -1.6389750508607E+00
(PID.TID 0000.0001) %MON exf_vwind_sd                 =   5.8273953951259E+00
(PID.TID 0000.0001) %MON exf_vwind_del2               =   8.1895904122027E-02
(PID.TID 0000.0001) %MON exf_wspeed_max               =   2.5487856396312E+01
(PID.TID 0000.0001) %MON exf_wspeed_min               =   8.6529810061982E-02
(PID.TID 0000.0001) %MON exf_wspeed_mean              =   7.8462667677611E+00
(PID.TID 0000.0001) %MON exf_wspeed_sd                =   3.3393287672781E+00
(PID.TID 0000.0001) %MON exf_wspeed_del2              =   9.3336019851782E-02
(PID.TID 0000.0001) %MON exf_atemp_max                =   3.0377396101104E+02
(PID.TID 0000.0001) %MON exf_atemp_min                =   2.3197451078973E+02
(PID.TID 0000.0001) %MON exf_atemp_mean               =   2.8923937843637E+02
(PID.TID 0000.0001) %MON exf_atemp_sd                 =   1.2571049820660E+01
(PID.TID 0000.0001) %MON exf_atemp_del2               =   1.5168910867359E-01
(PID.TID 0000.0001) %MON exf_aqh_max                  =   2.1546618430271E-02
(PID.TID 0000.0001) %MON exf_aqh_min                  =  -8.2758663597158E-04
(PID.TID 0000.0001) %MON exf_aqh_mean                 =   1.1117549135381E-02
(PID.TID 0000.0001) %MON exf_aqh_sd                   =   5.7693447327525E-03
(PID.TID 0000.0001) %MON exf_aqh_del2                 =   9.2570459671690E-05
(PID.TID 0000.0001) %MON exf_lwflux_max               =   1.3816578742387E+02
(PID.TID 0000.0001) %MON exf_lwflux_min               =   2.1104610468029E+01
(PID.TID 0000.0001) %MON exf_lwflux_mean              =   5.7446820532338E+01
(PID.TID 0000.0001) %MON exf_lwflux_sd                =   1.7576650739226E+01
(PID.TID 0000.0001) %MON exf_lwflux_del2              =   4.3433130727842E-01
(PID.TID 0000.0001) %MON exf_precip_max               =   1.3952566577185E-07
(PID.TID 0000.0001) %MON exf_precip_min               =   5.2872901939645E-10
(PID.TID 0000.0001) %MON exf_precip_mean              =   3.5681721592199E-08
(PID.TID 0000.0001) %MON exf_precip_sd                =   2.7044785972952E-08
(PID.TID 0000.0001) %MON exf_precip_del2              =   3.5131368413684E-10
(PID.TID 0000.0001) %MON exf_swflux_max               =  -0.0000000000000E+00
(PID.TID 0000.0001) %MON exf_swflux_min               =  -3.0868927255252E+02
(PID.TID 0000.0001) %MON exf_swflux_mean              =  -1.8596159691840E+02
(PID.TID 0000.0001) %MON exf_swflux_sd                =   8.1302897993783E+01
(PID.TID 0000.0001) %MON exf_swflux_del2              =   1.4904783365774E+00
(PID.TID 0000.0001) %MON exf_evap_max                 =   2.0913029748287E-07
(PID.TID 0000.0001) %MON exf_evap_min                 =  -2.7173056024201E-08
(PID.TID 0000.0001) %MON exf_evap_mean                =   3.7089488173784E-08
(PID.TID 0000.0001) %MON exf_evap_sd                  =   2.5811498014057E-08
(PID.TID 0000.0001) %MON exf_evap_del2                =   5.0412238240463E-10
(PID.TID 0000.0001) %MON exf_swdown_max               =   3.3050243313975E+02
(PID.TID 0000.0001) %MON exf_swdown_min               =   0.0000000000000E+00
(PID.TID 0000.0001) %MON exf_swdown_mean              =   1.9910235216103E+02
(PID.TID 0000.0001) %MON exf_swdown_sd                =   8.7048070657155E+01
(PID.TID 0000.0001) %MON exf_swdown_del2              =   1.5958012168923E+00
(PID.TID 0000.0001) %MON exf_lwdown_max               =   4.3242861563053E+02
(PID.TID 0000.0001) %MON exf_lwdown_min               =   1.7265985369293E+02
(PID.TID 0000.0001) %MON exf_lwdown_mean              =   3.5335503620575E+02
(PID.TID 0000.0001) %MON exf_lwdown_sd                =   5.7582670557818E+01
(PID.TID 0000.0001) %MON exf_lwdown_del2              =   2.6109167112130E+00
(PID.TID 0000.0001) %MON exf_climsss_max              =   3.9968531916218E+01
(PID.TID 0000.0001) %MON exf_climsss_min              =   1.7862026030017E+01
(PID.TID 0000.0001) %MON exf_climsss_mean             =   3.4682964341320E+01
(PID.TID 0000.0001) %MON exf_climsss_sd               =   1.4104525485945E+00
(PID.TID 0000.0001) %MON exf_climsss_del2             =   4.9153385445087E-03
(PID.TID 0000.0001) // =======================================================
(PID.TID 0000.0001) // End MONITOR EXF statistics
(PID.TID 0000.0001) // =======================================================
 SEAICE_LSR: Residual Initial ipass,Uice,Vice=    1  8.03171605E-02  9.24915410E-02
 SEAICE_LSR: Residual FrDrift U_fd,V_fd=  6.01510510E-02  5.66902228E-02
 SEAICE_LSR (ipass=   1) iters,dU,Resid=     6  5.85930056E-07  1.25495563E-09
 SEAICE_LSR (ipass=   1) iters,dV,Resid=     6  6.47760049E-07  1.44518033E-09
 SEAICE_LSR: Residual Initial ipass,Uice,Vice=    2  1.33330895E-01  9.26834677E-02
 SEAICE_LSR: Residual FrDrift U_fd,V_fd=  4.47462019E-02  3.92436237E-02
 SEAICE_LSR (ipass=   2) iters,dU,Resid=     4  9.95352836E-05  8.33318095E-07
 SEAICE_LSR (ipass=   2) iters,dV,Resid=     4  9.95667401E-05  5.79271673E-07
 cg2d: Sum(rhs),rhsMax =   5.15910996215081E+00  7.59748648915074E+00
 cg2d: Sum(rhs),rhsMax =   5.85339041398856E+00  7.57707687000719E+00
(PID.TID 0000.0001)      cg2d_init_res =   4.22968849634872E+00
(PID.TID 0000.0001)      cg2d_iters(min,last) =      -1      29
(PID.TID 0000.0001)      cg2d_last_res =   1.64459490856805E-05
(PID.TID 0000.0001) // =======================================================
(PID.TID 0000.0001) // Begin MONITOR dynamic field statistics
(PID.TID 0000.0001) // =======================================================
(PID.TID 0000.0001) %MON time_tsnumber                =                     8
(PID.TID 0000.0001) %MON time_secondsf                =   2.8800000000000E+04
(PID.TID 0000.0001) %MON dynstat_eta_max              =   1.2509077788599E+00
(PID.TID 0000.0001) %MON dynstat_eta_min              =  -9.5911248545498E-01
(PID.TID 0000.0001) %MON dynstat_eta_mean             =  -1.2676716872650E-03
(PID.TID 0000.0001) %MON dynstat_eta_sd               =   3.8037969886218E-01
(PID.TID 0000.0001) %MON dynstat_eta_del2             =   1.1365200405911E-03
(PID.TID 0000.0001) %MON dynstat_uvel_max             =   6.2992995635995E-01
(PID.TID 0000.0001) %MON dynstat_uvel_min             =  -5.8163663779951E-01
(PID.TID 0000.0001) %MON dynstat_uvel_mean            =  -2.1093275501990E-03
(PID.TID 0000.0001) %MON dynstat_uvel_sd              =   2.2552911401044E-02
(PID.TID 0000.0001) %MON dynstat_uvel_del2            =   1.0109073462108E-04
(PID.TID 0000.0001) %MON dynstat_vvel_max             =   1.4643246242769E+00
(PID.TID 0000.0001) %MON dynstat_vvel_min             =  -8.5274591487176E-01
(PID.TID 0000.0001) %MON dynstat_vvel_mean            =  -2.1746653614466E-03
(PID.TID 0000.0001) %MON dynstat_vvel_sd              =   2.5217051638538E-02
(PID.TID 0000.0001) %MON dynstat_vvel_del2            =   1.0862769138101E-04
(PID.TID 0000.0001) %MON dynstat_wvel_max             =   4.5313493668183E-03
(PID.TID 0000.0001) %MON dynstat_wvel_min             =  -3.2933732799632E-03
(PID.TID 0000.0001) %MON dynstat_wvel_mean            =   1.9059152413601E-07
(PID.TID 0000.0001) %MON dynstat_wvel_sd              =   7.8916763516826E-05
(PID.TID 0000.0001) %MON dynstat_wvel_del2            =   3.4892681203439E-07
(PID.TID 0000.0001) %MON dynstat_theta_max            =   3.0152078831684E+01
(PID.TID 0000.0001) %MON dynstat_theta_min            =  -1.9023455243547E+00
(PID.TID 0000.0001) %MON dynstat_theta_mean           =   3.5950801840311E+00
(PID.TID 0000.0001) %MON dynstat_theta_sd             =   4.4462019966372E+00
(PID.TID 0000.0001) %MON dynstat_theta_del2           =   1.6126124282755E-03
(PID.TID 0000.0001) %MON dynstat_salt_max             =   4.0970629679566E+01
(PID.TID 0000.0001) %MON dynstat_salt_min             =   2.8976440325534E+01
(PID.TID 0000.0001) %MON dynstat_salt_mean            =   3.4726336749230E+01
(PID.TID 0000.0001) %MON dynstat_salt_sd              =   4.0065222272350E-01
(PID.TID 0000.0001) %MON dynstat_salt_del2            =   3.3660942373234E-04
(PID.TID 0000.0001) %MON forcing_qnet_max             =   8.9467819094281E+02
(PID.TID 0000.0001) %MON forcing_qnet_min             =  -2.7985059220511E+02
(PID.TID 0000.0001) %MON forcing_qnet_mean            =  -2.6250225085459E+01
(PID.TID 0000.0001) %MON forcing_qnet_sd              =   1.3327008948155E+02
(PID.TID 0000.0001) %MON forcing_qnet_del2            =   1.2739679816110E+00
(PID.TID 0000.0001) %MON forcing_qsw_max              =   0.0000000000000E+00
(PID.TID 0000.0001) %MON forcing_qsw_min              =  -3.0880657117689E+02
(PID.TID 0000.0001) %MON forcing_qsw_mean             =  -1.8596261138610E+02
(PID.TID 0000.0001) %MON forcing_qsw_sd               =   8.1304302305395E+01
(PID.TID 0000.0001) %MON forcing_qsw_del2             =   1.5794339711773E-01
(PID.TID 0000.0001) %MON forcing_empmr_max            =   2.3214749512048E-03
(PID.TID 0000.0001) %MON forcing_empmr_min            =  -1.2725811986427E-04
(PID.TID 0000.0001) %MON forcing_empmr_mean           =   4.2950248104927E-05
(PID.TID 0000.0001) %MON forcing_empmr_sd             =   2.4417458966406E-04
(PID.TID 0000.0001) %MON forcing_empmr_del2           =   2.1848187952779E-06
(PID.TID 0000.0001) %MON forcing_fu_max               =   1.0826315697410E+00
(PID.TID 0000.0001) %MON forcing_fu_min               =  -7.0251825708240E-01
(PID.TID 0000.0001) %MON forcing_fu_mean              =  -8.2765247554417E-03
(PID.TID 0000.0001) %MON forcing_fu_sd                =   1.1863222187523E-01
(PID.TID 0000.0001) %MON forcing_fu_del2              =   1.5808042210406E-03
(PID.TID 0000.0001) %MON forcing_fv_max               =   1.7003917922014E+00
(PID.TID 0000.0001) %MON forcing_fv_min               =  -8.0212091990679E-01
(PID.TID 0000.0001) %MON forcing_fv_mean              =  -2.0036980510344E-02
(PID.TID 0000.0001) %MON forcing_fv_sd                =   1.2106511145213E-01
(PID.TID 0000.0001) %MON forcing_fv_del2              =   1.5680862868683E-03
(PID.TID 0000.0001) %MON advcfl_uvel_max              =   7.8751097144496E-03
(PID.TID 0000.0001) %MON advcfl_vvel_max              =   1.7248627067838E-02
(PID.TID 0000.0001) %MON advcfl_wvel_max              =   2.2087872648330E-01
(PID.TID 0000.0001) %MON advcfl_W_hf_max              =   2.3102804165151E-01
(PID.TID 0000.0001) %MON pe_b_mean                    =   1.9048034473356E-04
(PID.TID 0000.0001) %MON ke_max                       =   5.3946392505955E-01
(PID.TID 0000.0001) %MON ke_mean                      =   5.3125650713804E-04
(PID.TID 0000.0001) %MON ke_vol                       =   1.3542976161516E+18
(PID.TID 0000.0001) %MON vort_r_min                   =  -4.4752045235881E-06
(PID.TID 0000.0001) %MON vort_r_max                   =   4.7570298874055E-06
(PID.TID 0000.0001) %MON vort_a_mean                  =  -1.9720793743754E-05
(PID.TID 0000.0001) %MON vort_a_sd                    =   7.5193055949346E-05
(PID.TID 0000.0001) %MON vort_p_mean                  =  -2.3385740259737E-05
(PID.TID 0000.0001) %MON vort_p_sd                    =   1.1229531245764E-04
(PID.TID 0000.0001) %MON surfExpan_theta_mean         =   6.8494673674184E-06
(PID.TID 0000.0001) %MON surfExpan_salt_mean          =  -1.1215886331764E-07
(PID.TID 0000.0001) // =======================================================
(PID.TID 0000.0001) // End MONITOR dynamic field statistics
(PID.TID 0000.0001) // =======================================================
(PID.TID 0000.0001) // =======================================================
(PID.TID 0000.0001) // Begin MONITOR SEAICE statistics
(PID.TID 0000.0001) // =======================================================
(PID.TID 0000.0001) %MON seaice_tsnumber              =                     8
(PID.TID 0000.0001) %MON seaice_time_sec              =   2.8800000000000E+04
(PID.TID 0000.0001) %MON seaice_uice_max              =   4.0000000000000E-01
(PID.TID 0000.0001) %MON seaice_uice_min              =  -4.0000000000000E-01
(PID.TID 0000.0001) %MON seaice_uice_mean             =  -2.0124118954581E-02
(PID.TID 0000.0001) %MON seaice_uice_sd               =   1.9403016072482E-01
(PID.TID 0000.0001) %MON seaice_uice_del2             =   2.4063358775369E-03
(PID.TID 0000.0001) %MON seaice_vice_max              =   4.0000000000000E-01
(PID.TID 0000.0001) %MON seaice_vice_min              =  -4.0000000000000E-01
(PID.TID 0000.0001) %MON seaice_vice_mean             =  -5.6028363397701E-02
(PID.TID 0000.0001) %MON seaice_vice_sd               =   1.9399240235949E-01
(PID.TID 0000.0001) %MON seaice_vice_del2             =   2.4454546951277E-03
(PID.TID 0000.0001) %MON seaice_area_max              =   1.6121958600489E-01
(PID.TID 0000.0001) %MON seaice_area_min              =   0.0000000000000E+00
(PID.TID 0000.0001) %MON seaice_area_mean             =   3.4332297588401E-03
(PID.TID 0000.0001) %MON seaice_area_sd               =   1.8035737274791E-02
(PID.TID 0000.0001) %MON seaice_area_del2             =   1.6753794693034E-04
(PID.TID 0000.0001) %MON seaice_heff_max              =   7.3542293254192E-02
(PID.TID 0000.0001) %MON seaice_heff_min              =   0.0000000000000E+00
(PID.TID 0000.0001) %MON seaice_heff_mean             =   1.4331231968303E-03
(PID.TID 0000.0001) %MON seaice_heff_sd               =   7.8738037537317E-03
(PID.TID 0000.0001) %MON seaice_heff_del2             =   7.0031003032150E-05
(PID.TID 0000.0001) %MON seaice_hsnow_max             =   1.0295651414971E-04
(PID.TID 0000.0001) %MON seaice_hsnow_min             =   0.0000000000000E+00
(PID.TID 0000.0001) %MON seaice_hsnow_mean            =   8.8502145484798E-07
(PID.TID 0000.0001) %MON seaice_hsnow_sd              =   5.6086174266032E-06
(PID.TID 0000.0001) %MON seaice_hsnow_del2            =   9.2814207382389E-08
(PID.TID 0000.0001) // =======================================================
(PID.TID 0000.0001) // End MONITOR SEAICE statistics
(PID.TID 0000.0001) // =======================================================
(PID.TID 0000.0001) %CHECKPOINT         8 ckptA
(PID.TID 0000.0001) ph-cost call cost_theta0
(PID.TID 0000.0001) ph-cost call cost_salt0
(PID.TID 0000.0001) ph-cost call cost_theta
(PID.TID 0000.0001) ph-cost call cost_salt
(PID.TID 0000.0001) buffer readvector         1      511       11      237     4420
(PID.TID 0000.0001) buffer readvector       516     1515      516      237     4420
(PID.TID 0000.0001) buffer readvector      1549     2548     1549      237     4420
(PID.TID 0000.0001) buffer readvector      2596     3595     2596      237     4420
(PID.TID 0000.0001) buffer readvector      3596     4420     3596      237     4420
(PID.TID 0000.0001) bi,bj,prof_num,num_var         1        1      237        1
(PID.TID 0000.0001) bi,bj,prof_num,num_var         1        1      237        2
(PID.TID 0000.0001) bi,bj,prof_num,num_var         1        1      237        3
(PID.TID 0000.0001) bi,bj,prof_num,num_var         1        1      237        4
(PID.TID 0000.0001) bi,bj,prof_num,num_var         1        1      237        5
(PID.TID 0000.0001) bi,bj,prof_num,num_var         1        1      237        6
(PID.TID 0000.0001) buffer readvector         1      534       34      152     4420
(PID.TID 0000.0001) buffer readvector       546     1545      546      152     4420
(PID.TID 0000.0001) buffer readvector      1551     2550     1551      152     4420
(PID.TID 0000.0001) buffer readvector      2551     3550     2551      152     4420
(PID.TID 0000.0001) buffer readvector      3568     4420     3568      152     4420
(PID.TID 0000.0001) bi,bj,prof_num,num_var         2        1      152        1
(PID.TID 0000.0001) bi,bj,prof_num,num_var         2        1      152        2
(PID.TID 0000.0001) bi,bj,prof_num,num_var         2        1      152        3
(PID.TID 0000.0001) bi,bj,prof_num,num_var         2        1      152        4
(PID.TID 0000.0001) bi,bj,prof_num,num_var         2        1      152        5
(PID.TID 0000.0001) bi,bj,prof_num,num_var         2        1      152        6
(PID.TID 0000.0001) buffer readvector         1      508        8      205     4420
(PID.TID 0000.0001) buffer readvector       518     1517      518      205     4420
(PID.TID 0000.0001) buffer readvector      1518     2517     1518      205     4420
(PID.TID 0000.0001) buffer readvector      2579     3578     2579      205     4420
(PID.TID 0000.0001) buffer readvector      3609     4420     3609      205     4420
(PID.TID 0000.0001) bi,bj,prof_num,num_var         3        1      205        1
(PID.TID 0000.0001) bi,bj,prof_num,num_var         3        1      205        2
(PID.TID 0000.0001) bi,bj,prof_num,num_var         3        1      205        3
(PID.TID 0000.0001) bi,bj,prof_num,num_var         3        1      205        4
(PID.TID 0000.0001) bi,bj,prof_num,num_var         3        1      205        5
(PID.TID 0000.0001) bi,bj,prof_num,num_var         3        1      205        6
(PID.TID 0000.0001) buffer readvector         1      507        7       45     4420
(PID.TID 0000.0001) buffer readvector       517     1516      517       45     4420
(PID.TID 0000.0001) buffer readvector      1562     2561     1562       45     4420
(PID.TID 0000.0001) buffer readvector      2633     3632     2633       45     4420
(PID.TID 0000.0001) buffer readvector      3684     4420     3684       45     4420
(PID.TID 0000.0001) bi,bj,prof_num,num_var         4        1       45        1
(PID.TID 0000.0001) bi,bj,prof_num,num_var         4        1       45        2
(PID.TID 0000.0001) bi,bj,prof_num,num_var         4        1       45        3
(PID.TID 0000.0001) bi,bj,prof_num,num_var         4        1       45        4
(PID.TID 0000.0001) bi,bj,prof_num,num_var         4        1       45        5
(PID.TID 0000.0001) bi,bj,prof_num,num_var         4        1       45        6
(PID.TID 0000.0001) buffer readvector         1      503        3      250     4420
(PID.TID 0000.0001) buffer readvector       534     1533      534      250     4420
(PID.TID 0000.0001) buffer readvector      1536     2535     1536      250     4420
(PID.TID 0000.0001) buffer readvector      2545     3544     2545      250     4420
(PID.TID 0000.0001) buffer readvector      3547     4420     3547      250     4420
(PID.TID 0000.0001) bi,bj,prof_num,num_var         5        1      250        1
(PID.TID 0000.0001) bi,bj,prof_num,num_var         5        1      250        2
(PID.TID 0000.0001) bi,bj,prof_num,num_var         5        1      250        3
(PID.TID 0000.0001) bi,bj,prof_num,num_var         5        1      250        4
(PID.TID 0000.0001) bi,bj,prof_num,num_var         5        1      250        5
(PID.TID 0000.0001) bi,bj,prof_num,num_var         5        1      250        6
(PID.TID 0000.0001) buffer readvector         1      510       10      192     4420
(PID.TID 0000.0001) buffer readvector       538     1537      538      192     4420
(PID.TID 0000.0001) buffer readvector      1550     2549     1550      192     4420
(PID.TID 0000.0001) buffer readvector      2604     3603     2604      192     4420
(PID.TID 0000.0001) buffer readvector      3612     4420     3612      192     4420
(PID.TID 0000.0001) bi,bj,prof_num,num_var         6        1      192        1
(PID.TID 0000.0001) bi,bj,prof_num,num_var         6        1      192        2
(PID.TID 0000.0001) bi,bj,prof_num,num_var         6        1      192        3
(PID.TID 0000.0001) bi,bj,prof_num,num_var         6        1      192        4
(PID.TID 0000.0001) bi,bj,prof_num,num_var         6        1      192        5
(PID.TID 0000.0001) bi,bj,prof_num,num_var         6        1      192        6
(PID.TID 0000.0001) buffer readvector         1      504        4      108     4420
(PID.TID 0000.0001) buffer readvector       557     1556      557      108     4420
(PID.TID 0000.0001) buffer readvector      1590     2589     1590      108     4420
(PID.TID 0000.0001) buffer readvector      2678     3677     2678      108     4420
(PID.TID 0000.0001) buffer readvector      3678     4420     3678      108     4420
(PID.TID 0000.0001) bi,bj,prof_num,num_var         7        1      108        1
(PID.TID 0000.0001) bi,bj,prof_num,num_var         7        1      108        2
(PID.TID 0000.0001) bi,bj,prof_num,num_var         7        1      108        3
(PID.TID 0000.0001) bi,bj,prof_num,num_var         7        1      108        4
(PID.TID 0000.0001) bi,bj,prof_num,num_var         7        1      108        5
(PID.TID 0000.0001) bi,bj,prof_num,num_var         7        1      108        6
(PID.TID 0000.0001) buffer readvector         1      522       22      146     4420
(PID.TID 0000.0001) buffer readvector       553     1552      553      146     4420
(PID.TID 0000.0001) buffer readvector      1553     2552     1553      146     4420
(PID.TID 0000.0001) buffer readvector      2594     3593     2594      146     4420
(PID.TID 0000.0001) buffer readvector      3676     4420     3676      146     4420
(PID.TID 0000.0001) bi,bj,prof_num,num_var         8        1      146        1
(PID.TID 0000.0001) bi,bj,prof_num,num_var         8        1      146        2
(PID.TID 0000.0001) bi,bj,prof_num,num_var         8        1      146        3
(PID.TID 0000.0001) bi,bj,prof_num,num_var         8        1      146        4
(PID.TID 0000.0001) bi,bj,prof_num,num_var         8        1      146        5
(PID.TID 0000.0001) bi,bj,prof_num,num_var         8        1      146        6
(PID.TID 0000.0001) buffer readvector         1      593       93       55     4420
(PID.TID 0000.0001) buffer readvector       656     1655      656       55     4420
(PID.TID 0000.0001) buffer readvector      1931     2930     1931       55     4420
(PID.TID 0000.0001) buffer readvector      2952     3951     2952       55     4420
(PID.TID 0000.0001) buffer readvector      3985     4420     3985       55     4420
(PID.TID 0000.0001) bi,bj,prof_num,num_var         9        1       55        1
(PID.TID 0000.0001) bi,bj,prof_num,num_var         9        1       55        2
(PID.TID 0000.0001) bi,bj,prof_num,num_var         9        1       55        3
(PID.TID 0000.0001) bi,bj,prof_num,num_var         9        1       55        4
(PID.TID 0000.0001) bi,bj,prof_num,num_var         9        1       55        5
(PID.TID 0000.0001) bi,bj,prof_num,num_var         9        1       55        6
(PID.TID 0000.0001) buffer readvector         1      552       52      111     4420
(PID.TID 0000.0001) buffer readvector       572     1571      572      111     4420
(PID.TID 0000.0001) buffer readvector      1583     2582     1583      111     4420
(PID.TID 0000.0001) buffer readvector      2589     3588     2589      111     4420
(PID.TID 0000.0001) buffer readvector      3629     4420     3629      111     4420
(PID.TID 0000.0001) bi,bj,prof_num,num_var        10        1      111        1
(PID.TID 0000.0001) bi,bj,prof_num,num_var        10        1      111        2
(PID.TID 0000.0001) bi,bj,prof_num,num_var        10        1      111        3
(PID.TID 0000.0001) bi,bj,prof_num,num_var        10        1      111        4
(PID.TID 0000.0001) bi,bj,prof_num,num_var        10        1      111        5
(PID.TID 0000.0001) bi,bj,prof_num,num_var        10        1      111        6
(PID.TID 0000.0001) buffer readvector         1      543       43      185     4420
(PID.TID 0000.0001) buffer readvector       545     1544      545      185     4420
(PID.TID 0000.0001) buffer readvector      1548     2547     1548      185     4420
(PID.TID 0000.0001) buffer readvector      2561     3560     2561      185     4420
(PID.TID 0000.0001) buffer readvector      3570     4420     3570      185     4420
(PID.TID 0000.0001) bi,bj,prof_num,num_var        11        1      185        1
(PID.TID 0000.0001) bi,bj,prof_num,num_var        11        1      185        2
(PID.TID 0000.0001) bi,bj,prof_num,num_var        11        1      185        3
(PID.TID 0000.0001) bi,bj,prof_num,num_var        11        1      185        4
(PID.TID 0000.0001) bi,bj,prof_num,num_var        11        1      185        5
(PID.TID 0000.0001) bi,bj,prof_num,num_var        11        1      185        6
(PID.TID 0000.0001) buffer readvector         1      523       23      152     4420
(PID.TID 0000.0001) buffer readvector       559     1558      559      152     4420
(PID.TID 0000.0001) buffer readvector      1649     2648     1649      152     4420
(PID.TID 0000.0001) buffer readvector      2657     3656     2657      152     4420
(PID.TID 0000.0001) buffer readvector      3675     4420     3675      152     4420
(PID.TID 0000.0001) bi,bj,prof_num,num_var        12        1      152        1
(PID.TID 0000.0001) bi,bj,prof_num,num_var        12        1      152        2
(PID.TID 0000.0001) bi,bj,prof_num,num_var        12        1      152        3
(PID.TID 0000.0001) bi,bj,prof_num,num_var        12        1      152        4
(PID.TID 0000.0001) bi,bj,prof_num,num_var        12        1      152        5
(PID.TID 0000.0001) bi,bj,prof_num,num_var        12        1      152        6
(PID.TID 0000.0001) buffer readvector         1      501        1      253     4420
(PID.TID 0000.0001) buffer readvector       506     1505      506      253     4420
(PID.TID 0000.0001) buffer readvector      1514     2513     1514      253     4420
(PID.TID 0000.0001) buffer readvector      2534     3533     2534      253     4420
(PID.TID 0000.0001) buffer readvector      3558     4420     3558      253     4420
(PID.TID 0000.0001) bi,bj,prof_num,num_var        13        1      253        1
(PID.TID 0000.0001) bi,bj,prof_num,num_var        13        1      253        2
(PID.TID 0000.0001) bi,bj,prof_num,num_var        13        1      253        3
(PID.TID 0000.0001) bi,bj,prof_num,num_var        13        1      253        4
(PID.TID 0000.0001) bi,bj,prof_num,num_var        13        1      253        5
(PID.TID 0000.0001) bi,bj,prof_num,num_var        13        1      253        6
(PID.TID 0000.0001) buffer readvector         1      565       65      187     4420
(PID.TID 0000.0001) buffer readvector       567     1566      567      187     4420
(PID.TID 0000.0001) buffer readvector      1595     2594     1595      187     4420
(PID.TID 0000.0001) buffer readvector      2605     3604     2605      187     4420
(PID.TID 0000.0001) buffer readvector      3643     4420     3643      187     4420
(PID.TID 0000.0001) bi,bj,prof_num,num_var        14        1      187        1
(PID.TID 0000.0001) bi,bj,prof_num,num_var        14        1      187        2
(PID.TID 0000.0001) bi,bj,prof_num,num_var        14        1      187        3
(PID.TID 0000.0001) bi,bj,prof_num,num_var        14        1      187        4
(PID.TID 0000.0001) bi,bj,prof_num,num_var        14        1      187        5
(PID.TID 0000.0001) bi,bj,prof_num,num_var        14        1      187        6
(PID.TID 0000.0001) buffer readvector         1      527       27      256     4420
(PID.TID 0000.0001) buffer readvector       548     1547      548      256     4420
(PID.TID 0000.0001) buffer readvector      1561     2560     1561      256     4420
(PID.TID 0000.0001) buffer readvector      2570     3569     2570      256     4420
(PID.TID 0000.0001) buffer readvector      3591     4420     3591      256     4420
(PID.TID 0000.0001) bi,bj,prof_num,num_var        15        1      256        1
(PID.TID 0000.0001) bi,bj,prof_num,num_var        15        1      256        2
(PID.TID 0000.0001) bi,bj,prof_num,num_var        15        1      256        3
(PID.TID 0000.0001) bi,bj,prof_num,num_var        15        1      256        4
(PID.TID 0000.0001) bi,bj,prof_num,num_var        15        1      256        5
(PID.TID 0000.0001) bi,bj,prof_num,num_var        15        1      256        6
(PID.TID 0000.0001) buffer readvector         1      509        9      257     4420
(PID.TID 0000.0001) buffer readvector       541     1540      541      257     4420
(PID.TID 0000.0001) buffer readvector      1545     2544     1545      257     4420
(PID.TID 0000.0001) buffer readvector      2556     3555     2556      257     4420
(PID.TID 0000.0001) buffer readvector      3565     4420     3565      257     4420
(PID.TID 0000.0001) bi,bj,prof_num,num_var        16        1      257        1
(PID.TID 0000.0001) bi,bj,prof_num,num_var        16        1      257        2
(PID.TID 0000.0001) bi,bj,prof_num,num_var        16        1      257        3
(PID.TID 0000.0001) bi,bj,prof_num,num_var        16        1      257        4
(PID.TID 0000.0001) bi,bj,prof_num,num_var        16        1      257        5
(PID.TID 0000.0001) bi,bj,prof_num,num_var        16        1      257        6
(PID.TID 0000.0001) buffer readvector         1      515       15      188     4420
(PID.TID 0000.0001) buffer readvector       520     1519      520      188     4420
(PID.TID 0000.0001) buffer readvector      1521     2520     1521      188     4420
(PID.TID 0000.0001) buffer readvector      2521     3520     2521      188     4420
(PID.TID 0000.0001) buffer readvector      3521     4420     3521      188     4420
(PID.TID 0000.0001) bi,bj,prof_num,num_var        17        1      188        1
(PID.TID 0000.0001) bi,bj,prof_num,num_var        17        1      188        2
(PID.TID 0000.0001) bi,bj,prof_num,num_var        17        1      188        3
(PID.TID 0000.0001) bi,bj,prof_num,num_var        17        1      188        4
(PID.TID 0000.0001) bi,bj,prof_num,num_var        17        1      188        5
(PID.TID 0000.0001) bi,bj,prof_num,num_var        17        1      188        6
(PID.TID 0000.0001) buffer readvector         1      506        6      256     4420
(PID.TID 0000.0001) buffer readvector       514     1513      514      256     4420
(PID.TID 0000.0001) buffer readvector      1529     2528     1529      256     4420
(PID.TID 0000.0001) buffer readvector      2529     3528     2529      256     4420
(PID.TID 0000.0001) buffer readvector      3538     4420     3538      256     4420
(PID.TID 0000.0001) bi,bj,prof_num,num_var        18        1      256        1
(PID.TID 0000.0001) bi,bj,prof_num,num_var        18        1      256        2
(PID.TID 0000.0001) bi,bj,prof_num,num_var        18        1      256        3
(PID.TID 0000.0001) bi,bj,prof_num,num_var        18        1      256        4
(PID.TID 0000.0001) bi,bj,prof_num,num_var        18        1      256        5
(PID.TID 0000.0001) bi,bj,prof_num,num_var        18        1      256        6
(PID.TID 0000.0001) buffer readvector         1      549       49      194     4420
(PID.TID 0000.0001) buffer readvector       551     1550      551      194     4420
(PID.TID 0000.0001) buffer readvector      1573     2572     1573      194     4420
(PID.TID 0000.0001) buffer readvector      2586     3585     2586      194     4420
(PID.TID 0000.0001) buffer readvector      3594     4420     3594      194     4420
(PID.TID 0000.0001) bi,bj,prof_num,num_var        19        1      194        1
(PID.TID 0000.0001) bi,bj,prof_num,num_var        19        1      194        2
(PID.TID 0000.0001) bi,bj,prof_num,num_var        19        1      194        3
(PID.TID 0000.0001) bi,bj,prof_num,num_var        19        1      194        4
(PID.TID 0000.0001) bi,bj,prof_num,num_var        19        1      194        5
(PID.TID 0000.0001) bi,bj,prof_num,num_var        19        1      194        6
(PID.TID 0000.0001) buffer readvector         1      604      104      106     4420
(PID.TID 0000.0001) buffer readvector       637     1636      637      106     4420
(PID.TID 0000.0001) buffer readvector      1660     2659     1660      106     4420
(PID.TID 0000.0001) buffer readvector      2735     3734     2735      106     4420
(PID.TID 0000.0001) buffer readvector      3751     4420     3751      106     4420
(PID.TID 0000.0001) bi,bj,prof_num,num_var        20        1      106        1
(PID.TID 0000.0001) bi,bj,prof_num,num_var        20        1      106        2
(PID.TID 0000.0001) bi,bj,prof_num,num_var        20        1      106        3
(PID.TID 0000.0001) bi,bj,prof_num,num_var        20        1      106        4
(PID.TID 0000.0001) bi,bj,prof_num,num_var        20        1      106        5
(PID.TID 0000.0001) bi,bj,prof_num,num_var        20        1      106        6
(PID.TID 0000.0001) buffer readvector         1      529       29      235     4420
(PID.TID 0000.0001) buffer readvector       537     1536      537      235     4420
(PID.TID 0000.0001) buffer readvector      1566     2565     1566      235     4420
(PID.TID 0000.0001) buffer readvector      2585     3584     2585      235     4420
(PID.TID 0000.0001) buffer readvector      3605     4420     3605      235     4420
(PID.TID 0000.0001) bi,bj,prof_num,num_var        21        1      235        1
(PID.TID 0000.0001) bi,bj,prof_num,num_var        21        1      235        2
(PID.TID 0000.0001) bi,bj,prof_num,num_var        21        1      235        3
(PID.TID 0000.0001) bi,bj,prof_num,num_var        21        1      235        4
(PID.TID 0000.0001) bi,bj,prof_num,num_var        21        1      235        5
(PID.TID 0000.0001) bi,bj,prof_num,num_var        21        1      235        6
(PID.TID 0000.0001) buffer readvector         1      505        5      212     4420
(PID.TID 0000.0001) buffer readvector       542     1541      542      212     4420
(PID.TID 0000.0001) buffer readvector      1577     2576     1577      212     4420
(PID.TID 0000.0001) buffer readvector      2611     3610     2611      212     4420
(PID.TID 0000.0001) buffer readvector      3646     4420     3646      212     4420
(PID.TID 0000.0001) bi,bj,prof_num,num_var        22        1      212        1
(PID.TID 0000.0001) bi,bj,prof_num,num_var        22        1      212        2
(PID.TID 0000.0001) bi,bj,prof_num,num_var        22        1      212        3
(PID.TID 0000.0001) bi,bj,prof_num,num_var        22        1      212        4
(PID.TID 0000.0001) bi,bj,prof_num,num_var        22        1      212        5
(PID.TID 0000.0001) bi,bj,prof_num,num_var        22        1      212        6
(PID.TID 0000.0001) buffer readvector         1      540       40      225     4420
(PID.TID 0000.0001) buffer readvector       547     1546      547      225     4420
(PID.TID 0000.0001) buffer readvector      1555     2554     1555      225     4420
(PID.TID 0000.0001) buffer readvector      2569     3568     2569      225     4420
(PID.TID 0000.0001) buffer readvector      3580     4420     3580      225     4420
(PID.TID 0000.0001) bi,bj,prof_num,num_var        23        1      225        1
(PID.TID 0000.0001) bi,bj,prof_num,num_var        23        1      225        2
(PID.TID 0000.0001) bi,bj,prof_num,num_var        23        1      225        3
(PID.TID 0000.0001) bi,bj,prof_num,num_var        23        1      225        4
(PID.TID 0000.0001) bi,bj,prof_num,num_var        23        1      225        5
(PID.TID 0000.0001) bi,bj,prof_num,num_var        23        1      225        6
(PID.TID 0000.0001) buffer readvector         1      513       13      213     4420
(PID.TID 0000.0001) buffer readvector       544     1543      544      213     4420
(PID.TID 0000.0001) buffer readvector      1585     2584     1585      213     4420
(PID.TID 0000.0001) buffer readvector      2601     3600     2601      213     4420
(PID.TID 0000.0001) buffer readvector      3614     4420     3614      213     4420
(PID.TID 0000.0001) bi,bj,prof_num,num_var        24        1      213        1
(PID.TID 0000.0001) bi,bj,prof_num,num_var        24        1      213        2
(PID.TID 0000.0001) bi,bj,prof_num,num_var        24        1      213        3
(PID.TID 0000.0001) bi,bj,prof_num,num_var        24        1      213        4
(PID.TID 0000.0001) bi,bj,prof_num,num_var        24        1      213        5
(PID.TID 0000.0001) bi,bj,prof_num,num_var        24        1      213        6
 --> f_ice     = 0.000000000000000D+00
 --> f_smrarea = 0.000000000000000D+00
 --> f_smrarea = 0.000000000000000D+00
 --> f_smrarea = 0.000000000000000D+00
 --> f_temp    = 0.365003522377290D+05
 --> f_salt    = 0.247660882365748D+05
 --> f_temp0   = 0.000000000000000D+00
 --> f_salt0   = 0.000000000000000D+00
 --> f_temp0smoo = 0.000000000000000D+00
 --> f_salt0smoo = 0.000000000000000D+00
 --> f_etan0   = 0.000000000000000D+00
 --> f_uvel0   = 0.000000000000000D+00
 --> f_vvel0   = 0.000000000000000D+00
 --> f_sst     = 0.000000000000000D+00
 --> f_tmi     = 0.000000000000000D+00
 --> f_sss     = 0.000000000000000D+00
 --> f_bp      = 0.000000000000000D+00
 --> f_ies      = 0.000000000000000D+00
 --> f_ssh       = 0.000000000000000D+00
 --> f_tp        = 0.000000000000000D+00
 --> f_ers       = 0.000000000000000D+00
 --> f_gfo       = 0.000000000000000D+00
 --> f_tauu    = 0.000000000000000D+00
 --> f_tauum   = 0.000000000000000D+00
 --> f_tauusmoo = 0.000000000000000D+00
 --> f_tauv    = 0.000000000000000D+00
 --> f_tauvm   = 0.000000000000000D+00
 --> f_tauvsmoo = 0.000000000000000D+00
 --> f_hflux   = 0.000000000000000D+00
 --> f_hfluxmm = 0.000000000000000D+00
 --> f_hfluxsmoo = 0.000000000000000D+00
 --> f_sflux   = 0.000000000000000D+00
 --> f_sfluxmm = 0.000000000000000D+00
 --> f_sfluxsmoo = 0.000000000000000D+00
 --> f_uwind     = 0.000000000000000D+00
 --> f_vwind     = 0.000000000000000D+00
 --> f_atemp     = 0.000000000000000D+00
 --> f_aqh     = 0.000000000000000D+00
 --> f_precip  = 0.000000000000000D+00
 --> f_swflux  = 0.000000000000000D+00
 --> f_swdown  = 0.000000000000000D+00
 --> f_uwindm     = 0.000000000000000D+00
 --> f_vwindm     = 0.000000000000000D+00
 --> f_atempm     = 0.000000000000000D+00
 --> f_aqhm     = 0.000000000000000D+00
 --> f_precipm  = 0.000000000000000D+00
 --> f_swfluxm  = 0.000000000000000D+00
 --> f_swdownm  = 0.000000000000000D+00
 --> f_uwindsmoo     = 0.000000000000000D+00
 --> f_vwindsmoo     = 0.000000000000000D+00
 --> f_atempsmoo     = 0.000000000000000D+00
 --> f_aqhsmoo     = 0.000000000000000D+00
 --> f_precipsmoo  = 0.000000000000000D+00
 --> f_swfluxsmoo  = 0.000000000000000D+00
 --> f_swdownsmoo  = 0.000000000000000D+00
 --> f_atl     = 0.000000000000000D+00
 --> f_ctdt    = 0.000000000000000D+00
 --> f_ctds    = 0.000000000000000D+00
 --> f_ctdtclim= 0.000000000000000D+00
 --> f_ctdsclim= 0.000000000000000D+00
 --> f_xbt     = 0.000000000000000D+00
 --> f_argot   = 0.000000000000000D+00
 --> f_argos   = 0.000000000000000D+00
 --> f_drifter   = 0.000000000000000D+00
 --> f_tdrift  = 0.000000000000000D+00
 --> f_sdrift  = 0.000000000000000D+00
 --> f_wdrift  = 0.000000000000000D+00
 --> f_scatx   = 0.000000000000000D+00
 --> f_scaty   = 0.000000000000000D+00
 --> f_scatxm  = 0.000000000000000D+00
 --> f_scatym  = 0.000000000000000D+00
 --> f_obcsn   = 0.000000000000000D+00
 --> f_obcss   = 0.000000000000000D+00
 --> f_obcsw   = 0.000000000000000D+00
 --> f_obcse   = 0.000000000000000D+00
 --> f_ageos   = 0.000000000000000D+00
 --> f_curmtr  = 0.000000000000000D+00
 --> f_kapgm   = 0.000000000000000D+00
 --> f_kapredi   = 0.000000000000000D+00
 --> f_diffkr  = 0.000000000000000D+00
 --> f_eddytau = 0.000000000000000D+00
 --> f_bottomdrag = 0.000000000000000D+00
 --> f_profiles = 0.134973596572774D+04 1 1
 --> f_profiles = 0.229260626483185D+05 1 2
 --> f_profiles = 0.000000000000000D+00 1 3
 --> f_profiles = 0.000000000000000D+00 1 4
 --> f_profiles = 0.000000000000000D+00 1 5
 --> f_profiles = 0.000000000000000D+00 1 6
 --> f_hfluxmm2           = 0.000000000000000D+00
 --> f_sfluxmm2           = 0.000000000000000D+00
 --> f_transp             = 0.000000000000000D+00
 --> objf_hmean           = 0.000000000000000D+00
 --> fc               = 0.000000000000000D+00
  early fc =  0.000000000000000D+00
 --> objf_test(bi,bj)   =  0.000000000000000D+00
 --> objf_tracer(bi,bj) =  0.000000000000000D+00
 --> objf_atl(bi,bj)    =  0.000000000000000D+00
 --> objf_test(bi,bj)   =  0.000000000000000D+00
 --> objf_tracer(bi,bj) =  0.000000000000000D+00
 --> objf_atl(bi,bj)    =  0.000000000000000D+00
 --> objf_test(bi,bj)   =  0.000000000000000D+00
 --> objf_tracer(bi,bj) =  0.000000000000000D+00
 --> objf_atl(bi,bj)    =  0.000000000000000D+00
 --> objf_test(bi,bj)   =  0.000000000000000D+00
 --> objf_tracer(bi,bj) =  0.000000000000000D+00
 --> objf_atl(bi,bj)    =  0.000000000000000D+00
 --> objf_test(bi,bj)   =  0.000000000000000D+00
 --> objf_tracer(bi,bj) =  0.000000000000000D+00
 --> objf_atl(bi,bj)    =  0.000000000000000D+00
 --> objf_test(bi,bj)   =  0.000000000000000D+00
 --> objf_tracer(bi,bj) =  0.000000000000000D+00
 --> objf_atl(bi,bj)    =  0.000000000000000D+00
 --> objf_test(bi,bj)   =  0.000000000000000D+00
 --> objf_tracer(bi,bj) =  0.000000000000000D+00
 --> objf_atl(bi,bj)    =  0.000000000000000D+00
 --> objf_test(bi,bj)   =  0.000000000000000D+00
 --> objf_tracer(bi,bj) =  0.000000000000000D+00
 --> objf_atl(bi,bj)    =  0.000000000000000D+00
 --> objf_test(bi,bj)   =  0.000000000000000D+00
 --> objf_tracer(bi,bj) =  0.000000000000000D+00
 --> objf_atl(bi,bj)    =  0.000000000000000D+00
 --> objf_test(bi,bj)   =  0.000000000000000D+00
 --> objf_tracer(bi,bj) =  0.000000000000000D+00
 --> objf_atl(bi,bj)    =  0.000000000000000D+00
 --> objf_test(bi,bj)   =  0.000000000000000D+00
 --> objf_tracer(bi,bj) =  0.000000000000000D+00
 --> objf_atl(bi,bj)    =  0.000000000000000D+00
 --> objf_test(bi,bj)   =  0.000000000000000D+00
 --> objf_tracer(bi,bj) =  0.000000000000000D+00
 --> objf_atl(bi,bj)    =  0.000000000000000D+00
 --> objf_test(bi,bj)   =  0.000000000000000D+00
 --> objf_tracer(bi,bj) =  0.000000000000000D+00
 --> objf_atl(bi,bj)    =  0.000000000000000D+00
 --> objf_test(bi,bj)   =  0.000000000000000D+00
 --> objf_tracer(bi,bj) =  0.000000000000000D+00
 --> objf_atl(bi,bj)    =  0.000000000000000D+00
 --> objf_test(bi,bj)   =  0.000000000000000D+00
 --> objf_tracer(bi,bj) =  0.000000000000000D+00
 --> objf_atl(bi,bj)    =  0.000000000000000D+00
 --> objf_test(bi,bj)   =  0.000000000000000D+00
 --> objf_tracer(bi,bj) =  0.000000000000000D+00
 --> objf_atl(bi,bj)    =  0.000000000000000D+00
 --> objf_test(bi,bj)   =  0.000000000000000D+00
 --> objf_tracer(bi,bj) =  0.000000000000000D+00
 --> objf_atl(bi,bj)    =  0.000000000000000D+00
 --> objf_test(bi,bj)   =  0.000000000000000D+00
 --> objf_tracer(bi,bj) =  0.000000000000000D+00
 --> objf_atl(bi,bj)    =  0.000000000000000D+00
 --> objf_test(bi,bj)   =  0.000000000000000D+00
 --> objf_tracer(bi,bj) =  0.000000000000000D+00
 --> objf_atl(bi,bj)    =  0.000000000000000D+00
 --> objf_test(bi,bj)   =  0.000000000000000D+00
 --> objf_tracer(bi,bj) =  0.000000000000000D+00
 --> objf_atl(bi,bj)    =  0.000000000000000D+00
 --> objf_test(bi,bj)   =  0.000000000000000D+00
 --> objf_tracer(bi,bj) =  0.000000000000000D+00
 --> objf_atl(bi,bj)    =  0.000000000000000D+00
 --> objf_test(bi,bj)   =  0.000000000000000D+00
 --> objf_tracer(bi,bj) =  0.000000000000000D+00
 --> objf_atl(bi,bj)    =  0.000000000000000D+00
 --> objf_test(bi,bj)   =  0.000000000000000D+00
 --> objf_tracer(bi,bj) =  0.000000000000000D+00
 --> objf_atl(bi,bj)    =  0.000000000000000D+00
 --> objf_test(bi,bj)   =  0.000000000000000D+00
 --> objf_tracer(bi,bj) =  0.000000000000000D+00
 --> objf_atl(bi,bj)    =  0.000000000000000D+00
  local fc =  0.242757986140463D+05
 global fc =  0.242757986140463D+05
(PID.TID 0000.0001) buffer readvector      2580     3579     3579      213     4420
(PID.TID 0000.0001) buffer readvector      1577     2576     2576      213     4420
(PID.TID 0000.0001) buffer readvector       533     1532     1532      213     4420
(PID.TID 0000.0001) buffer readvector         1      510      510      213     4420
(PID.TID 0000.0001) buffer readvector      2568     3567     3567      225     4420
(PID.TID 0000.0001) buffer readvector      1514     2513     2513      225     4420
(PID.TID 0000.0001) buffer readvector       494     1493     1493      225     4420
(PID.TID 0000.0001) buffer readvector         1      477      477      225     4420
(PID.TID 0000.0001) buffer readvector      2552     3551     3551      212     4420
(PID.TID 0000.0001) buffer readvector      1548     2547     2547      212     4420
(PID.TID 0000.0001) buffer readvector       528     1527     1527      212     4420
(PID.TID 0000.0001) buffer readvector         1      457      457      212     4420
(PID.TID 0000.0001) buffer readvector      2583     3582     3582      235     4420
(PID.TID 0000.0001) buffer readvector      1564     2563     2563      235     4420
(PID.TID 0000.0001) buffer readvector       518     1517     1517      235     4420
(PID.TID 0000.0001) buffer readvector         1      513      513      235     4420
(PID.TID 0000.0001) buffer readvector      2734     3733     3733      106     4420
(PID.TID 0000.0001) buffer readvector      1656     2655     2655      106     4420
(PID.TID 0000.0001) buffer readvector       616     1615     1615      106     4420
(PID.TID 0000.0001) buffer readvector         1      498      498      106     4420
(PID.TID 0000.0001) buffer readvector      2549     3548     3548      194     4420
(PID.TID 0000.0001) buffer readvector      1503     2502     2502      194     4420
(PID.TID 0000.0001) buffer readvector       483     1482     1482      194     4420
(PID.TID 0000.0001) buffer readvector         1      471      471      194     4420
(PID.TID 0000.0001) buffer readvector      2526     3525     3525      256     4420
(PID.TID 0000.0001) buffer readvector      1520     2519     2519      256     4420
(PID.TID 0000.0001) buffer readvector       512     1511     1511      256     4420
(PID.TID 0000.0001) buffer readvector         1      481      481      256     4420
(PID.TID 0000.0001) buffer readvector      2515     3514     3514      188     4420
(PID.TID 0000.0001) buffer readvector      1513     2512     2512      188     4420
(PID.TID 0000.0001) buffer readvector       489     1488     1488      188     4420
(PID.TID 0000.0001) buffer readvector         1      484      484      188     4420
(PID.TID 0000.0001) buffer readvector      2546     3545     3545      257     4420
(PID.TID 0000.0001) buffer readvector      1541     2540     2540      257     4420
(PID.TID 0000.0001) buffer readvector       510     1509     1509      257     4420
(PID.TID 0000.0001) buffer readvector         1      496      496      257     4420
(PID.TID 0000.0001) buffer readvector      2497     3496     3496      256     4420
(PID.TID 0000.0001) buffer readvector      1465     2464     2464      256     4420
(PID.TID 0000.0001) buffer readvector       448     1447     1447      256     4420
(PID.TID 0000.0001) buffer readvector         1      440      440      256     4420
(PID.TID 0000.0001) buffer readvector      2577     3576     3576      187     4420
(PID.TID 0000.0001) buffer readvector      1568     2567     2567      187     4420
(PID.TID 0000.0001) buffer readvector       565     1564     1564      187     4420
(PID.TID 0000.0001) buffer readvector         1      554      554      187     4420
(PID.TID 0000.0001) buffer readvector      2517     3516     3516      253     4420
(PID.TID 0000.0001) buffer readvector      1475     2474     2474      253     4420
(PID.TID 0000.0001) buffer readvector       443     1442     1442      253     4420
(PID.TID 0000.0001) buffer readvector         1      433      433      253     4420
(PID.TID 0000.0001) buffer readvector      2651     3650     3650      152     4420
(PID.TID 0000.0001) buffer readvector      1555     2554     2554      152     4420
(PID.TID 0000.0001) buffer readvector       545     1544     1544      152     4420
(PID.TID 0000.0001) buffer readvector         1      511      511      152     4420
(PID.TID 0000.0001) buffer readvector      2498     3497     3497      185     4420
(PID.TID 0000.0001) buffer readvector      1467     2466     2466      185     4420
(PID.TID 0000.0001) buffer readvector       409     1408     1408      185     4420
(PID.TID 0000.0001) buffer readvector         1      400      400      185     4420
(PID.TID 0000.0001) buffer readvector      2573     3572     3572      111     4420
(PID.TID 0000.0001) buffer readvector      1567     2566     2566      111     4420
(PID.TID 0000.0001) buffer readvector       561     1560     1560      111     4420
(PID.TID 0000.0001) buffer readvector         1      508      508      111     4420
(PID.TID 0000.0001) buffer readvector      2918     3917     3917       55     4420
(PID.TID 0000.0001) buffer readvector      1849     2848     2848       55     4420
(PID.TID 0000.0001) buffer readvector       507     1506     1506       55     4420
(PID.TID 0000.0001) buffer readvector         1      290      290       55     4420
(PID.TID 0000.0001) buffer readvector      2588     3587     3587      146     4420
(PID.TID 0000.0001) buffer readvector      1521     2520     2520      146     4420
(PID.TID 0000.0001) buffer readvector       497     1496     1496      146     4420
(PID.TID 0000.0001) buffer readvector         1      388      388      146     4420
(PID.TID 0000.0001) buffer readvector      2633     3632     3632      108     4420
(PID.TID 0000.0001) buffer readvector      1510     2509     2509      108     4420
(PID.TID 0000.0001) buffer readvector       419     1418     1418      108     4420
(PID.TID 0000.0001) buffer readvector         1      385      385      108     4420
(PID.TID 0000.0001) buffer readvector      2554     3553     3553      192     4420
(PID.TID 0000.0001) buffer readvector      1543     2542     2542      192     4420
(PID.TID 0000.0001) buffer readvector       526     1525     1525      192     4420
(PID.TID 0000.0001) buffer readvector         1      507      507      192     4420
(PID.TID 0000.0001) buffer readvector      2510     3509     3509      250     4420
(PID.TID 0000.0001) buffer readvector      1506     2505     2505      250     4420
(PID.TID 0000.0001) buffer readvector       503     1502     1502      250     4420
(PID.TID 0000.0001) buffer readvector         1      424      424      250     4420
(PID.TID 0000.0001) buffer readvector      2363     3362     3362       45     4420
(PID.TID 0000.0001) buffer readvector      1192     2191     2191       45     4420
(PID.TID 0000.0001) buffer readvector        80     1079     1079       45     4420
(PID.TID 0000.0001) buffer readvector         1        7        7       45     4420
(PID.TID 0000.0001) buffer readvector      2579     3578     3578      205     4420
(PID.TID 0000.0001) buffer readvector      1484     2483     2483      205     4420
(PID.TID 0000.0001) buffer readvector       467     1466     1466      205     4420
(PID.TID 0000.0001) buffer readvector         1      434      434      205     4420
(PID.TID 0000.0001) buffer readvector      2509     3508     3508      152     4420
(PID.TID 0000.0001) buffer readvector      1431     2430     2430      152     4420
(PID.TID 0000.0001) buffer readvector       414     1413     1413      152     4420
(PID.TID 0000.0001) buffer readvector         1      409      409      152     4420
(PID.TID 0000.0001) buffer readvector      2585     3584     3584      237     4420
(PID.TID 0000.0001) buffer readvector      1544     2543     2543      237     4420
(PID.TID 0000.0001) buffer readvector       514     1513     1513      237     4420
(PID.TID 0000.0001) buffer readvector         1      505      505      237     4420
(PID.TID 0000.0001) whio : write lev 2 rec   1
(PID.TID 0000.0001) SOLVE_FOR_PRESSURE: putPmEinXvector =    F
 cg2d: Sum(rhs),rhsMax =   7.73551084252254E-01  6.80494402321960E+00
 cg2d: Sum(rhs),rhsMax =   1.52697357776830E+00  8.23373653148557E+00
 cg2d: Sum(rhs),rhsMax =   2.27601764106811E+00  7.98039283413279E+00
 cg2d: Sum(rhs),rhsMax =   3.02165606500827E+00  7.75066850268121E+00
(PID.TID 0000.0001) whio : write lev 2 rec   2
 cg2d: Sum(rhs),rhsMax =   3.74608557507722E+00  7.66158157204242E+00
 cg2d: Sum(rhs),rhsMax =   4.45761409653082E+00  7.62173353286068E+00
 cg2d: Sum(rhs),rhsMax =   5.15910996215143E+00  7.59748648915099E+00
 cg2d: Sum(rhs),rhsMax =   5.85339041398944E+00  7.57707687000760E+00
(PID.TID 0000.0001) Did not write pickup because writePickupAtEnd = FALSE
(PID.TID 0000.0001) whio : write lev 2 rec   3
 cg2d: Sum(rhs),rhsMax =   3.74608626045571E+00  7.66157759657710E+00
 cg2d: Sum(rhs),rhsMax =   4.45761805475988E+00  7.62172914408715E+00
 cg2d: Sum(rhs),rhsMax =   5.15911646020501E+00  7.59748201905469E+00
 cg2d: Sum(rhs),rhsMax =   5.85339761989445E+00  7.57707255755980E+00
(PID.TID 0000.0001) Did not write pickup because writePickupAtEnd = FALSE
(PID.TID 0000.0001) Did not write pickup because writePickupAtEnd = FALSE
 cg2d: Sum(rhs),rhsMax =   0.00000000000000E+00  0.00000000000000E+00
 cg2d: Sum(rhs),rhsMax =   0.00000000000000E+00  0.00000000000000E+00
 cg2d: Sum(rhs),rhsMax =  -3.97046694025453E-22  1.07018336897721E-06
 cg2d: Sum(rhs),rhsMax =   1.58818677610181E-21  1.47992646299682E-05
(PID.TID 0000.0001) SOLVE_FOR_PRESSURE: putPmEinXvector =    F
 cg2d: Sum(rhs),rhsMax =   7.73551084252254E-01  6.80494402321960E+00
 cg2d: Sum(rhs),rhsMax =   1.52697357776830E+00  8.23373653148557E+00
 cg2d: Sum(rhs),rhsMax =   2.27601764106811E+00  7.98039283413279E+00
 cg2d: Sum(rhs),rhsMax =   3.02165606500827E+00  7.75066850268121E+00
 cg2d: Sum(rhs),rhsMax =  -3.81164826264435E-21  1.17817226715303E-05
 cg2d: Sum(rhs),rhsMax =  -1.27054942088145E-21  7.41668534119298E-06
 cg2d: Sum(rhs),rhsMax =  -2.96461531539005E-21  7.69070903393411E-06
 cg2d: Sum(rhs),rhsMax =   3.49401090742399E-21  1.09920979275049E-05
(PID.TID 0000.0001) // =======================================================
(PID.TID 0000.0001) // Begin AD_MONITOR EXF statistics for iwhen =  3
(PID.TID 0000.0001) // =======================================================
(PID.TID 0000.0001) %MON ad_exf_tsnumber              =                     0
(PID.TID 0000.0001) %MON ad_exf_time_sec              =   0.0000000000000E+00
(PID.TID 0000.0001) %MON ad_exf_adfu_max              =   3.6792199113431E-02
(PID.TID 0000.0001) %MON ad_exf_adfu_min              =  -1.1813384539308E-01
(PID.TID 0000.0001) %MON ad_exf_adfu_mean             =   2.2404392056702E-04
(PID.TID 0000.0001) %MON ad_exf_adfu_sd               =   3.6803651693404E-03
(PID.TID 0000.0001) %MON ad_exf_adfu_del2             =   1.2832722833597E-04
(PID.TID 0000.0001) %MON ad_exf_adfv_max              =   3.6351966641788E-02
(PID.TID 0000.0001) %MON ad_exf_adfv_min              =  -5.4832462092469E-02
(PID.TID 0000.0001) %MON ad_exf_adfv_mean             =   7.0568974191148E-06
(PID.TID 0000.0001) %MON ad_exf_adfv_sd               =   3.3330463500780E-03
(PID.TID 0000.0001) %MON ad_exf_adfv_del2             =   1.3405060604260E-04
(PID.TID 0000.0001) %MON ad_exf_adqnet_max            =   1.3607255457542E-05
(PID.TID 0000.0001) %MON ad_exf_adqnet_min            =  -1.0070717658426E-05
(PID.TID 0000.0001) %MON ad_exf_adqnet_mean           =  -1.0696523307907E-07
(PID.TID 0000.0001) %MON ad_exf_adqnet_sd             =   3.2257709713820E-06
(PID.TID 0000.0001) %MON ad_exf_adqnet_del2           =   2.8676493079068E-08
(PID.TID 0000.0001) %MON ad_exf_adempmr_max           =   1.0920964401300E+02
(PID.TID 0000.0001) %MON ad_exf_adempmr_min           =  -1.5244675336494E+01
(PID.TID 0000.0001) %MON ad_exf_adempmr_mean          =   3.7181872500818E-01
(PID.TID 0000.0001) %MON ad_exf_adempmr_sd            =   4.8463218398741E+00
(PID.TID 0000.0001) %MON ad_exf_adempmr_del2          =   3.4450090327245E-02
(PID.TID 0000.0001) // =======================================================
(PID.TID 0000.0001) // End AD_MONITOR EXF statistics for iwhen =  3
(PID.TID 0000.0001) // =======================================================
(PID.TID 0000.0001) // =======================================================
(PID.TID 0000.0001) // Begin AD_MONITOR EXF statistics for iwhen =  1
(PID.TID 0000.0001) // =======================================================
(PID.TID 0000.0001) %MON ad_exf_tsnumber              =                     0
(PID.TID 0000.0001) %MON ad_exf_time_sec              =   0.0000000000000E+00
(PID.TID 0000.0001) %MON ad_exf_adustress_max         =   2.2637061346255E-02
(PID.TID 0000.0001) %MON ad_exf_adustress_min         =  -5.6075811952569E-02
(PID.TID 0000.0001) %MON ad_exf_adustress_mean        =   1.9789439149311E-04
(PID.TID 0000.0001) %MON ad_exf_adustress_sd          =   2.4489084177598E-03
(PID.TID 0000.0001) %MON ad_exf_adustress_del2        =   6.5175725564481E-05
(PID.TID 0000.0001) %MON ad_exf_advstress_max         =   1.8678950206504E-02
(PID.TID 0000.0001) %MON ad_exf_advstress_min         =  -3.1533202495287E-02
(PID.TID 0000.0001) %MON ad_exf_advstress_mean        =   6.1398637954935E-06
(PID.TID 0000.0001) %MON ad_exf_advstress_sd          =   2.2667214674477E-03
(PID.TID 0000.0001) %MON ad_exf_advstress_del2        =   6.2454384050737E-05
(PID.TID 0000.0001) %MON ad_exf_adhflux_max           =   1.6648064084783E-04
(PID.TID 0000.0001) %MON ad_exf_adhflux_min           =  -1.0070717658426E-05
(PID.TID 0000.0001) %MON ad_exf_adhflux_mean          =   4.0746314722484E-07
(PID.TID 0000.0001) %MON ad_exf_adhflux_sd            =   5.7713650802598E-06
(PID.TID 0000.0001) %MON ad_exf_adhflux_del2          =   4.4153264830114E-08
(PID.TID 0000.0001) %MON ad_exf_adsflux_max           =   0.0000000000000E+00
(PID.TID 0000.0001) %MON ad_exf_adsflux_min           =   0.0000000000000E+00
(PID.TID 0000.0001) %MON ad_exf_adsflux_mean          =   0.0000000000000E+00
(PID.TID 0000.0001) %MON ad_exf_adsflux_sd            =   0.0000000000000E+00
(PID.TID 0000.0001) %MON ad_exf_adsflux_del2          =   0.0000000000000E+00
(PID.TID 0000.0001) %MON ad_exf_adwspeed_max          =   0.0000000000000E+00
(PID.TID 0000.0001) %MON ad_exf_adwspeed_min          =   0.0000000000000E+00
(PID.TID 0000.0001) %MON ad_exf_adwspeed_mean         =   0.0000000000000E+00
(PID.TID 0000.0001) %MON ad_exf_adwspeed_sd           =   0.0000000000000E+00
(PID.TID 0000.0001) %MON ad_exf_adwspeed_del2         =   0.0000000000000E+00
(PID.TID 0000.0001) // =======================================================
(PID.TID 0000.0001) // End AD_MONITOR EXF statistics for iwhen =  1
(PID.TID 0000.0001) // =======================================================
(PID.TID 0000.0001) // =======================================================
(PID.TID 0000.0001) // Begin AD_MONITOR EXF statistics for iwhen =  2
(PID.TID 0000.0001) // =======================================================
(PID.TID 0000.0001) %MON ad_exf_tsnumber              =                     0
(PID.TID 0000.0001) %MON ad_exf_time_sec              =   0.0000000000000E+00
(PID.TID 0000.0001) %MON ad_exf_aduwind_max           =   2.9890359244472E-03
(PID.TID 0000.0001) %MON ad_exf_aduwind_min           =  -6.7083518531305E-03
(PID.TID 0000.0001) %MON ad_exf_aduwind_mean          =  -3.5883128803234E-06
(PID.TID 0000.0001) %MON ad_exf_aduwind_sd            =   2.3012284647473E-04
(PID.TID 0000.0001) %MON ad_exf_aduwind_del2          =   4.2445550861698E-06
(PID.TID 0000.0001) %MON ad_exf_advwind_max           =   3.5898472493709E-03
(PID.TID 0000.0001) %MON ad_exf_advwind_min           =  -2.8972034980213E-03
(PID.TID 0000.0001) %MON ad_exf_advwind_mean          =  -1.0840409067856E-05
(PID.TID 0000.0001) %MON ad_exf_advwind_sd            =   1.6344617904008E-04
(PID.TID 0000.0001) %MON ad_exf_advwind_del2          =   4.0895138396318E-06
(PID.TID 0000.0001) %MON ad_exf_adatemp_max           =   2.4716299667864E-04
(PID.TID 0000.0001) %MON ad_exf_adatemp_min           =  -1.9307335212195E-03
(PID.TID 0000.0001) %MON ad_exf_adatemp_mean          =  -9.8828719204994E-06
(PID.TID 0000.0001) %MON ad_exf_adatemp_sd            =   8.4194802162200E-05
(PID.TID 0000.0001) %MON ad_exf_adatemp_del2          =   1.0164247158125E-06
(PID.TID 0000.0001) %MON ad_exf_adaqh_max             =   6.7980771464522E-01
(PID.TID 0000.0001) %MON ad_exf_adaqh_min             =  -4.8782149133583E+00
(PID.TID 0000.0001) %MON ad_exf_adaqh_mean            =  -2.3770429118255E-02
(PID.TID 0000.0001) %MON ad_exf_adaqh_sd              =   2.1565458580976E-01
(PID.TID 0000.0001) %MON ad_exf_adaqh_del2            =   2.4685616866758E-03
(PID.TID 0000.0001) %MON ad_exf_adlwflux_max          =   0.0000000000000E+00
(PID.TID 0000.0001) %MON ad_exf_adlwflux_min          =   0.0000000000000E+00
(PID.TID 0000.0001) %MON ad_exf_adlwflux_mean         =   0.0000000000000E+00
(PID.TID 0000.0001) %MON ad_exf_adlwflux_sd           =   0.0000000000000E+00
(PID.TID 0000.0001) %MON ad_exf_adlwflux_del2         =   0.0000000000000E+00
(PID.TID 0000.0001) %MON ad_exf_adprecip_max          =   1.5747541008185E+04
(PID.TID 0000.0001) %MON ad_exf_adprecip_min          =  -1.0889184827320E+05
(PID.TID 0000.0001) %MON ad_exf_adprecip_mean         =   5.2275150772619E+01
(PID.TID 0000.0001) %MON ad_exf_adprecip_sd           =   4.8495812986270E+03
(PID.TID 0000.0001) %MON ad_exf_adprecip_del2         =   3.4686139568333E+01
(PID.TID 0000.0001) %MON ad_exf_adswflux_max          =   0.0000000000000E+00
(PID.TID 0000.0001) %MON ad_exf_adswflux_min          =   0.0000000000000E+00
(PID.TID 0000.0001) %MON ad_exf_adswflux_mean         =   0.0000000000000E+00
(PID.TID 0000.0001) %MON ad_exf_adswflux_sd           =   0.0000000000000E+00
(PID.TID 0000.0001) %MON ad_exf_adswflux_del2         =   0.0000000000000E+00
(PID.TID 0000.0001) %MON ad_exf_adswdown_max          =   8.1902788715268E-06
(PID.TID 0000.0001) %MON ad_exf_adswdown_min          =  -1.1977849677978E-04
(PID.TID 0000.0001) %MON ad_exf_adswdown_mean         =  -2.7241333146222E-07
(PID.TID 0000.0001) %MON ad_exf_adswdown_sd           =   4.4725764531870E-06
(PID.TID 0000.0001) %MON ad_exf_adswdown_del2         =   3.4881867464169E-08
(PID.TID 0000.0001) %MON ad_exf_adlwdown_max          =   1.0070717658426E-05
(PID.TID 0000.0001) %MON ad_exf_adlwdown_min          =  -1.6648064084783E-04
(PID.TID 0000.0001) %MON ad_exf_adlwdown_mean         =  -4.0746314722484E-07
(PID.TID 0000.0001) %MON ad_exf_adlwdown_sd           =   5.7713650802598E-06
(PID.TID 0000.0001) %MON ad_exf_adlwdown_del2         =   4.4153264830114E-08
(PID.TID 0000.0001) // =======================================================
(PID.TID 0000.0001) // End AD_MONITOR EXF statistics for iwhen =  2
(PID.TID 0000.0001) // =======================================================
(PID.TID 0000.0001) Start initial hydrostatic pressure computation
(PID.TID 0000.0001) Pressure is predetermined for buoyancyRelation OCEANIC
(PID.TID 0000.0001) 
(PID.TID 0000.0001) // =======================================================
(PID.TID 0000.0001) // Begin MONITOR dynamic field statistics
(PID.TID 0000.0001) // =======================================================
(PID.TID 0000.0001) %MON ad_time_tsnumber             =                     0
(PID.TID 0000.0001) %MON ad_time_secondsf             =   0.0000000000000E+00
(PID.TID 0000.0001) %MON ad_dynstat_adeta_max         =   0.0000000000000E+00
(PID.TID 0000.0001) %MON ad_dynstat_adeta_min         =   0.0000000000000E+00
(PID.TID 0000.0001) %MON ad_dynstat_adeta_mean        =   0.0000000000000E+00
(PID.TID 0000.0001) %MON ad_dynstat_adeta_sd          =   0.0000000000000E+00
(PID.TID 0000.0001) %MON ad_dynstat_adeta_del2        =   0.0000000000000E+00
(PID.TID 0000.0001) %MON ad_dynstat_aduvel_max        =   8.8919818863488E+00
(PID.TID 0000.0001) %MON ad_dynstat_aduvel_min        =  -1.1478856410793E+00
(PID.TID 0000.0001) %MON ad_dynstat_aduvel_mean       =   5.0521736618738E-05
(PID.TID 0000.0001) %MON ad_dynstat_aduvel_sd         =   2.5068573206978E-02
(PID.TID 0000.0001) %MON ad_dynstat_aduvel_del2       =   5.7084581081511E-05
(PID.TID 0000.0001) %MON ad_dynstat_advvel_max        =   1.2525483867382E+00
(PID.TID 0000.0001) %MON ad_dynstat_advvel_min        =  -1.9709585243573E+01
(PID.TID 0000.0001) %MON ad_dynstat_advvel_mean       =  -1.5242147794726E-04
(PID.TID 0000.0001) %MON ad_dynstat_advvel_sd         =   5.5822785835129E-02
(PID.TID 0000.0001) %MON ad_dynstat_advvel_del2       =   7.1458427722483E-05
(PID.TID 0000.0001) %MON ad_dynstat_adwvel_max        =   0.0000000000000E+00
(PID.TID 0000.0001) %MON ad_dynstat_adwvel_min        =   0.0000000000000E+00
(PID.TID 0000.0001) %MON ad_dynstat_adwvel_mean       =   0.0000000000000E+00
(PID.TID 0000.0001) %MON ad_dynstat_adwvel_sd         =   0.0000000000000E+00
(PID.TID 0000.0001) %MON ad_dynstat_adwvel_del2       =   0.0000000000000E+00
(PID.TID 0000.0001) %MON ad_dynstat_adtheta_max       =   8.0752487634091E+00
(PID.TID 0000.0001) %MON ad_dynstat_adtheta_min       =  -1.3134839444925E+00
(PID.TID 0000.0001) %MON ad_dynstat_adtheta_mean      =   2.1009871228267E-03
(PID.TID 0000.0001) %MON ad_dynstat_adtheta_sd        =   6.4894877247937E-02
(PID.TID 0000.0001) %MON ad_dynstat_adtheta_del2      =   1.3872034854840E-04
(PID.TID 0000.0001) %MON ad_dynstat_adsalt_max        =   6.8746795591665E+01
(PID.TID 0000.0001) %MON ad_dynstat_adsalt_min        =  -5.3031352437969E+00
(PID.TID 0000.0001) %MON ad_dynstat_adsalt_mean       =   2.1263786237834E-02
(PID.TID 0000.0001) %MON ad_dynstat_adsalt_sd         =   9.0384217989723E-01
(PID.TID 0000.0001) %MON ad_dynstat_adsalt_del2       =   5.7761819298068E-04
(PID.TID 0000.0001) %MON ad_forcing_adqnet_max        =   0.0000000000000E+00
(PID.TID 0000.0001) %MON ad_forcing_adqnet_min        =   0.0000000000000E+00
(PID.TID 0000.0001) %MON ad_forcing_adqnet_mean       =   0.0000000000000E+00
(PID.TID 0000.0001) %MON ad_forcing_adqnet_sd         =   0.0000000000000E+00
(PID.TID 0000.0001) %MON ad_forcing_adqnet_del2       =   0.0000000000000E+00
(PID.TID 0000.0001) %MON ad_forcing_adqsw_max         =   0.0000000000000E+00
(PID.TID 0000.0001) %MON ad_forcing_adqsw_min         =   0.0000000000000E+00
(PID.TID 0000.0001) %MON ad_forcing_adqsw_mean        =   0.0000000000000E+00
(PID.TID 0000.0001) %MON ad_forcing_adqsw_sd          =   0.0000000000000E+00
(PID.TID 0000.0001) %MON ad_forcing_adqsw_del2        =   0.0000000000000E+00
(PID.TID 0000.0001) %MON ad_forcing_adempmr_max       =   0.0000000000000E+00
(PID.TID 0000.0001) %MON ad_forcing_adempmr_min       =   0.0000000000000E+00
(PID.TID 0000.0001) %MON ad_forcing_adempmr_mean      =   0.0000000000000E+00
(PID.TID 0000.0001) %MON ad_forcing_adempmr_sd        =   0.0000000000000E+00
(PID.TID 0000.0001) %MON ad_forcing_adempmr_del2      =   0.0000000000000E+00
(PID.TID 0000.0001) %MON ad_forcing_adfu_max          =   0.0000000000000E+00
(PID.TID 0000.0001) %MON ad_forcing_adfu_min          =   0.0000000000000E+00
(PID.TID 0000.0001) %MON ad_forcing_adfu_mean         =   0.0000000000000E+00
(PID.TID 0000.0001) %MON ad_forcing_adfu_sd           =   0.0000000000000E+00
(PID.TID 0000.0001) %MON ad_forcing_adfu_del2         =   0.0000000000000E+00
(PID.TID 0000.0001) %MON ad_forcing_adfv_max          =   0.0000000000000E+00
(PID.TID 0000.0001) %MON ad_forcing_adfv_min          =   0.0000000000000E+00
(PID.TID 0000.0001) %MON ad_forcing_adfv_mean         =   0.0000000000000E+00
(PID.TID 0000.0001) %MON ad_forcing_adfv_sd           =   0.0000000000000E+00
(PID.TID 0000.0001) %MON ad_forcing_adfv_del2         =   0.0000000000000E+00
(PID.TID 0000.0001) // =======================================================
(PID.TID 0000.0001) // End MONITOR dynamic field statistics
(PID.TID 0000.0001) // =======================================================
(PID.TID 0000.0001) // =======================================================
(PID.TID 0000.0001) // Begin AD_MONITOR SEAICE statistics
(PID.TID 0000.0001) // =======================================================
(PID.TID 0000.0001) %MON ad_seaice_tsnumber           =                     0
(PID.TID 0000.0001) %MON ad_seaice_time_sec           =   0.0000000000000E+00
(PID.TID 0000.0001) %MON ad_seaice_aduice_max         =   8.0208328496188E-04
(PID.TID 0000.0001) %MON ad_seaice_aduice_min         =  -5.1660033147161E-04
(PID.TID 0000.0001) %MON ad_seaice_aduice_mean        =  -8.5059743154589E-08
(PID.TID 0000.0001) %MON ad_seaice_aduice_sd          =   2.3244626028092E-05
(PID.TID 0000.0001) %MON ad_seaice_aduice_del2        =   2.9344581407669E-07
(PID.TID 0000.0001) %MON ad_seaice_advice_max         =   1.0761227337787E-03
(PID.TID 0000.0001) %MON ad_seaice_advice_min         =  -5.3725604027153E-04
(PID.TID 0000.0001) %MON ad_seaice_advice_mean        =   5.1141515393401E-08
(PID.TID 0000.0001) %MON ad_seaice_advice_sd          =   2.3664969216506E-05
(PID.TID 0000.0001) %MON ad_seaice_advice_del2        =   3.2936448202518E-07
(PID.TID 0000.0001) %MON ad_seaice_adarea_max         =   1.4183524421934E-03
(PID.TID 0000.0001) %MON ad_seaice_adarea_min         =  -3.6468812979360E-03
(PID.TID 0000.0001) %MON ad_seaice_adarea_mean        =   8.2175664816194E-07
(PID.TID 0000.0001) %MON ad_seaice_adarea_sd          =   1.3110325521867E-04
(PID.TID 0000.0001) %MON ad_seaice_adarea_del2        =   4.0164554988326E-06
(PID.TID 0000.0001) %MON ad_seaice_adheff_max         =   3.5666850742502E+00
(PID.TID 0000.0001) %MON ad_seaice_adheff_min         =  -2.3688843020290E+01
(PID.TID 0000.0001) %MON ad_seaice_adheff_mean        =  -9.4225101031650E-02
(PID.TID 0000.0001) %MON ad_seaice_adheff_sd          =   1.0492868737600E+00
(PID.TID 0000.0001) %MON ad_seaice_adheff_del2        =   7.9536451196447E-03
(PID.TID 0000.0001) %MON ad_seaice_adhsnow_max        =   1.4538086476926E+00
(PID.TID 0000.0001) %MON ad_seaice_adhsnow_min        =  -9.9717144486538E+00
(PID.TID 0000.0001) %MON ad_seaice_adhsnow_mean       =  -3.8745427663986E-02
(PID.TID 0000.0001) %MON ad_seaice_adhsnow_sd         =   4.3701462421254E-01
(PID.TID 0000.0001) %MON ad_seaice_adhsnow_del2       =   3.2321088938219E-03
(PID.TID 0000.0001) // =======================================================
(PID.TID 0000.0001) // End AD_MONITOR SEAICE statistics
(PID.TID 0000.0001) // =======================================================
 ph-pack: packing ecco_cost
 ph-pack: packing ecco_ctrl
(PID.TID 0000.0001) // =======================================================
(PID.TID 0000.0001) // Gradient-check starts (grdchk_main)
(PID.TID 0000.0001) // =======================================================
(PID.TID 0000.0001) grdchk reference fc: fcref       =  2.42757986140463E+04
grad-res -------------------------------
 grad-res  proc    #    i    j    k   bi   bj iobc       fc ref            fc + eps           fc - eps
 grad-res  proc    #    i    j    k   bi   bj iobc      adj grad            fd grad          1 - fd/adj
(PID.TID 0000.0001) ====== Starts gradient-check number   1 (=ichknum) =======
 ph-test icomp, ncvarcomp, ichknum            1      185786           1
 ph-grd _loc: bi, bj, icomptest, ichknum            1           1           0           1
 ph-grd -->hit<--            1           1           1           1
(PID.TID 0000.0001) grdchk pos: i,j,k=    1    1    1 ; bi,bj=   1   1 ; iobc=  1 ; rec=   1
(PID.TID 0000.0001) Start initial hydrostatic pressure computation
(PID.TID 0000.0001) Pressure is predetermined for buoyancyRelation OCEANIC
(PID.TID 0000.0001) 
(PID.TID 0000.0001) // =======================================================
(PID.TID 0000.0001) // Model current state
(PID.TID 0000.0001) // =======================================================
(PID.TID 0000.0001) 
(PID.TID 0000.0001) SOLVE_FOR_PRESSURE: putPmEinXvector =    F
 cg2d: Sum(rhs),rhsMax =   7.73551084252176E-01  6.80494402335200E+00
 cg2d: Sum(rhs),rhsMax =   1.52697336948223E+00  8.23373653173832E+00
 cg2d: Sum(rhs),rhsMax =   2.27601724527180E+00  7.98039283449775E+00
 cg2d: Sum(rhs),rhsMax =   3.02165548548584E+00  7.75066850316151E+00
 cg2d: Sum(rhs),rhsMax =   3.74608481203776E+00  7.66158157263649E+00
 cg2d: Sum(rhs),rhsMax =   4.45761315120325E+00  7.62173353356716E+00
 cg2d: Sum(rhs),rhsMax =   5.15910883532024E+00  7.59748648996853E+00
 cg2d: Sum(rhs),rhsMax =   5.85338910620391E+00  7.57707687093480E+00
(PID.TID 0000.0001) Did not write pickup because writePickupAtEnd = FALSE
(PID.TID 0000.0001) ph-cost call cost_theta0
(PID.TID 0000.0001) ph-cost call cost_salt0
(PID.TID 0000.0001) ph-cost call cost_theta
(PID.TID 0000.0001) ph-cost call cost_salt
(PID.TID 0000.0001) buffer readvector       516     1515      516      237     4420
(PID.TID 0000.0001) buffer readvector      1549     2548     1549      237     4420
(PID.TID 0000.0001) buffer readvector      2596     3595     2596      237     4420
(PID.TID 0000.0001) buffer readvector      3596     4420     3596      237     4420
(PID.TID 0000.0001) bi,bj,prof_num,num_var         1        1      237        1
(PID.TID 0000.0001) bi,bj,prof_num,num_var         1        1      237        2
(PID.TID 0000.0001) bi,bj,prof_num,num_var         1        1      237        3
(PID.TID 0000.0001) bi,bj,prof_num,num_var         1        1      237        4
(PID.TID 0000.0001) bi,bj,prof_num,num_var         1        1      237        5
(PID.TID 0000.0001) bi,bj,prof_num,num_var         1        1      237        6
(PID.TID 0000.0001) buffer readvector       435     1434      435      152     4420
(PID.TID 0000.0001) buffer readvector      1464     2463     1464      152     4420
(PID.TID 0000.0001) buffer readvector      2551     3550     2551      152     4420
(PID.TID 0000.0001) buffer readvector      3568     4420     3568      152     4420
(PID.TID 0000.0001) bi,bj,prof_num,num_var         2        1      152        1
(PID.TID 0000.0001) bi,bj,prof_num,num_var         2        1      152        2
(PID.TID 0000.0001) bi,bj,prof_num,num_var         2        1      152        3
(PID.TID 0000.0001) bi,bj,prof_num,num_var         2        1      152        4
(PID.TID 0000.0001) bi,bj,prof_num,num_var         2        1      152        5
(PID.TID 0000.0001) bi,bj,prof_num,num_var         2        1      152        6
(PID.TID 0000.0001) buffer readvector       495     1494      495      205     4420
(PID.TID 0000.0001) buffer readvector      1518     2517     1518      205     4420
(PID.TID 0000.0001) buffer readvector      2579     3578     2579      205     4420
(PID.TID 0000.0001) buffer readvector      3609     4420     3609      205     4420
(PID.TID 0000.0001) bi,bj,prof_num,num_var         3        1      205        1
(PID.TID 0000.0001) bi,bj,prof_num,num_var         3        1      205        2
(PID.TID 0000.0001) bi,bj,prof_num,num_var         3        1      205        3
(PID.TID 0000.0001) bi,bj,prof_num,num_var         3        1      205        4
(PID.TID 0000.0001) bi,bj,prof_num,num_var         3        1      205        5
(PID.TID 0000.0001) bi,bj,prof_num,num_var         3        1      205        6
(PID.TID 0000.0001) buffer readvector       150     1149      150       45     4420
(PID.TID 0000.0001) buffer readvector      1233     2232     1233       45     4420
(PID.TID 0000.0001) buffer readvector      2437     3436     2437       45     4420
(PID.TID 0000.0001) buffer readvector      3684     4420     3684       45     4420
(PID.TID 0000.0001) bi,bj,prof_num,num_var         4        1       45        1
(PID.TID 0000.0001) bi,bj,prof_num,num_var         4        1       45        2
(PID.TID 0000.0001) bi,bj,prof_num,num_var         4        1       45        3
(PID.TID 0000.0001) bi,bj,prof_num,num_var         4        1       45        4
(PID.TID 0000.0001) bi,bj,prof_num,num_var         4        1       45        5
(PID.TID 0000.0001) bi,bj,prof_num,num_var         4        1       45        6
(PID.TID 0000.0001) buffer readvector       534     1533      534      250     4420
(PID.TID 0000.0001) buffer readvector      1536     2535     1536      250     4420
(PID.TID 0000.0001) buffer readvector      2545     3544     2545      250     4420
(PID.TID 0000.0001) buffer readvector      3547     4420     3547      250     4420
(PID.TID 0000.0001) bi,bj,prof_num,num_var         5        1      250        1
(PID.TID 0000.0001) bi,bj,prof_num,num_var         5        1      250        2
(PID.TID 0000.0001) bi,bj,prof_num,num_var         5        1      250        3
(PID.TID 0000.0001) bi,bj,prof_num,num_var         5        1      250        4
(PID.TID 0000.0001) bi,bj,prof_num,num_var         5        1      250        5
(PID.TID 0000.0001) bi,bj,prof_num,num_var         5        1      250        6
(PID.TID 0000.0001) buffer readvector       538     1537      538      192     4420
(PID.TID 0000.0001) buffer readvector      1550     2549     1550      192     4420
(PID.TID 0000.0001) buffer readvector      2604     3603     2604      192     4420
(PID.TID 0000.0001) buffer readvector      3612     4420     3612      192     4420
(PID.TID 0000.0001) bi,bj,prof_num,num_var         6        1      192        1
(PID.TID 0000.0001) bi,bj,prof_num,num_var         6        1      192        2
(PID.TID 0000.0001) bi,bj,prof_num,num_var         6        1      192        3
(PID.TID 0000.0001) bi,bj,prof_num,num_var         6        1      192        4
(PID.TID 0000.0001) bi,bj,prof_num,num_var         6        1      192        5
(PID.TID 0000.0001) bi,bj,prof_num,num_var         6        1      192        6
(PID.TID 0000.0001) buffer readvector       441     1440      441      108     4420
(PID.TID 0000.0001) buffer readvector      1524     2523     1524      108     4420
(PID.TID 0000.0001) buffer readvector      2678     3677     2678      108     4420
(PID.TID 0000.0001) buffer readvector      3678     4420     3678      108     4420
(PID.TID 0000.0001) bi,bj,prof_num,num_var         7        1      108        1
(PID.TID 0000.0001) bi,bj,prof_num,num_var         7        1      108        2
(PID.TID 0000.0001) bi,bj,prof_num,num_var         7        1      108        3
(PID.TID 0000.0001) bi,bj,prof_num,num_var         7        1      108        4
(PID.TID 0000.0001) bi,bj,prof_num,num_var         7        1      108        5
(PID.TID 0000.0001) bi,bj,prof_num,num_var         7        1      108        6
(PID.TID 0000.0001) buffer readvector       500     1499      500      146     4420
(PID.TID 0000.0001) buffer readvector      1533     2532     1533      146     4420
(PID.TID 0000.0001) buffer readvector      2594     3593     2594      146     4420
(PID.TID 0000.0001) buffer readvector      3676     4420     3676      146     4420
(PID.TID 0000.0001) bi,bj,prof_num,num_var         8        1      146        1
(PID.TID 0000.0001) bi,bj,prof_num,num_var         8        1      146        2
(PID.TID 0000.0001) bi,bj,prof_num,num_var         8        1      146        3
(PID.TID 0000.0001) bi,bj,prof_num,num_var         8        1      146        4
(PID.TID 0000.0001) bi,bj,prof_num,num_var         8        1      146        5
(PID.TID 0000.0001) bi,bj,prof_num,num_var         8        1      146        6
(PID.TID 0000.0001) buffer readvector       543     1542      543       55     4420
(PID.TID 0000.0001) buffer readvector      1931     2930     1931       55     4420
(PID.TID 0000.0001) buffer readvector      2952     3951     2952       55     4420
(PID.TID 0000.0001) buffer readvector      3985     4420     3985       55     4420
(PID.TID 0000.0001) bi,bj,prof_num,num_var         9        1       55        1
(PID.TID 0000.0001) bi,bj,prof_num,num_var         9        1       55        2
(PID.TID 0000.0001) bi,bj,prof_num,num_var         9        1       55        3
(PID.TID 0000.0001) bi,bj,prof_num,num_var         9        1       55        4
(PID.TID 0000.0001) bi,bj,prof_num,num_var         9        1       55        5
(PID.TID 0000.0001) bi,bj,prof_num,num_var         9        1       55        6
(PID.TID 0000.0001) buffer readvector       572     1571      572      111     4420
(PID.TID 0000.0001) buffer readvector      1583     2582     1583      111     4420
(PID.TID 0000.0001) buffer readvector      2589     3588     2589      111     4420
(PID.TID 0000.0001) buffer readvector      3629     4420     3629      111     4420
(PID.TID 0000.0001) bi,bj,prof_num,num_var        10        1      111        1
(PID.TID 0000.0001) bi,bj,prof_num,num_var        10        1      111        2
(PID.TID 0000.0001) bi,bj,prof_num,num_var        10        1      111        3
(PID.TID 0000.0001) bi,bj,prof_num,num_var        10        1      111        4
(PID.TID 0000.0001) bi,bj,prof_num,num_var        10        1      111        5
(PID.TID 0000.0001) bi,bj,prof_num,num_var        10        1      111        6
(PID.TID 0000.0001) buffer readvector       422     1421      422      185     4420
(PID.TID 0000.0001) buffer readvector      1470     2469     1470      185     4420
(PID.TID 0000.0001) buffer readvector      2504     3503     2504      185     4420
(PID.TID 0000.0001) buffer readvector      3570     4420     3570      185     4420
(PID.TID 0000.0001) bi,bj,prof_num,num_var        11        1      185        1
(PID.TID 0000.0001) bi,bj,prof_num,num_var        11        1      185        2
(PID.TID 0000.0001) bi,bj,prof_num,num_var        11        1      185        3
(PID.TID 0000.0001) bi,bj,prof_num,num_var        11        1      185        4
(PID.TID 0000.0001) bi,bj,prof_num,num_var        11        1      185        5
(PID.TID 0000.0001) bi,bj,prof_num,num_var        11        1      185        6
(PID.TID 0000.0001) buffer readvector       559     1558      559      152     4420
(PID.TID 0000.0001) buffer readvector      1649     2648     1649      152     4420
(PID.TID 0000.0001) buffer readvector      2657     3656     2657      152     4420
(PID.TID 0000.0001) buffer readvector      3675     4420     3675      152     4420
(PID.TID 0000.0001) bi,bj,prof_num,num_var        12        1      152        1
(PID.TID 0000.0001) bi,bj,prof_num,num_var        12        1      152        2
(PID.TID 0000.0001) bi,bj,prof_num,num_var        12        1      152        3
(PID.TID 0000.0001) bi,bj,prof_num,num_var        12        1      152        4
(PID.TID 0000.0001) bi,bj,prof_num,num_var        12        1      152        5
(PID.TID 0000.0001) bi,bj,prof_num,num_var        12        1      152        6
(PID.TID 0000.0001) buffer readvector       482     1481      482      253     4420
(PID.TID 0000.0001) buffer readvector      1491     2490     1491      253     4420
(PID.TID 0000.0001) buffer readvector      2534     3533     2534      253     4420
(PID.TID 0000.0001) buffer readvector      3558     4420     3558      253     4420
(PID.TID 0000.0001) bi,bj,prof_num,num_var        13        1      253        1
(PID.TID 0000.0001) bi,bj,prof_num,num_var        13        1      253        2
(PID.TID 0000.0001) bi,bj,prof_num,num_var        13        1      253        3
(PID.TID 0000.0001) bi,bj,prof_num,num_var        13        1      253        4
(PID.TID 0000.0001) bi,bj,prof_num,num_var        13        1      253        5
(PID.TID 0000.0001) bi,bj,prof_num,num_var        13        1      253        6
(PID.TID 0000.0001) buffer readvector       567     1566      567      187     4420
(PID.TID 0000.0001) buffer readvector      1595     2594     1595      187     4420
(PID.TID 0000.0001) buffer readvector      2605     3604     2605      187     4420
(PID.TID 0000.0001) buffer readvector      3643     4420     3643      187     4420
(PID.TID 0000.0001) bi,bj,prof_num,num_var        14        1      187        1
(PID.TID 0000.0001) bi,bj,prof_num,num_var        14        1      187        2
(PID.TID 0000.0001) bi,bj,prof_num,num_var        14        1      187        3
(PID.TID 0000.0001) bi,bj,prof_num,num_var        14        1      187        4
(PID.TID 0000.0001) bi,bj,prof_num,num_var        14        1      187        5
(PID.TID 0000.0001) bi,bj,prof_num,num_var        14        1      187        6
(PID.TID 0000.0001) buffer readvector       466     1465      466      256     4420
(PID.TID 0000.0001) buffer readvector      1481     2480     1481      256     4420
(PID.TID 0000.0001) buffer readvector      2499     3498     2499      256     4420
(PID.TID 0000.0001) buffer readvector      3591     4420     3591      256     4420
(PID.TID 0000.0001) bi,bj,prof_num,num_var        15        1      256        1
(PID.TID 0000.0001) bi,bj,prof_num,num_var        15        1      256        2
(PID.TID 0000.0001) bi,bj,prof_num,num_var        15        1      256        3
(PID.TID 0000.0001) bi,bj,prof_num,num_var        15        1      256        4
(PID.TID 0000.0001) bi,bj,prof_num,num_var        15        1      256        5
(PID.TID 0000.0001) bi,bj,prof_num,num_var        15        1      256        6
(PID.TID 0000.0001) buffer readvector       541     1540      541      257     4420
(PID.TID 0000.0001) buffer readvector      1545     2544     1545      257     4420
(PID.TID 0000.0001) buffer readvector      2556     3555     2556      257     4420
(PID.TID 0000.0001) buffer readvector      3565     4420     3565      257     4420
(PID.TID 0000.0001) bi,bj,prof_num,num_var        16        1      257        1
(PID.TID 0000.0001) bi,bj,prof_num,num_var        16        1      257        2
(PID.TID 0000.0001) bi,bj,prof_num,num_var        16        1      257        3
(PID.TID 0000.0001) bi,bj,prof_num,num_var        16        1      257        4
(PID.TID 0000.0001) bi,bj,prof_num,num_var        16        1      257        5
(PID.TID 0000.0001) bi,bj,prof_num,num_var        16        1      257        6
(PID.TID 0000.0001) buffer readvector       494     1493      494      188     4420
(PID.TID 0000.0001) buffer readvector      1521     2520     1521      188     4420
(PID.TID 0000.0001) buffer readvector      2521     3520     2521      188     4420
(PID.TID 0000.0001) buffer readvector      3521     4420     3521      188     4420
(PID.TID 0000.0001) bi,bj,prof_num,num_var        17        1      188        1
(PID.TID 0000.0001) bi,bj,prof_num,num_var        17        1      188        2
(PID.TID 0000.0001) bi,bj,prof_num,num_var        17        1      188        3
(PID.TID 0000.0001) bi,bj,prof_num,num_var        17        1      188        4
(PID.TID 0000.0001) bi,bj,prof_num,num_var        17        1      188        5
(PID.TID 0000.0001) bi,bj,prof_num,num_var        17        1      188        6
(PID.TID 0000.0001) buffer readvector       514     1513      514      256     4420
(PID.TID 0000.0001) buffer readvector      1529     2528     1529      256     4420
(PID.TID 0000.0001) buffer readvector      2529     3528     2529      256     4420
(PID.TID 0000.0001) buffer readvector      3538     4420     3538      256     4420
(PID.TID 0000.0001) bi,bj,prof_num,num_var        18        1      256        1
(PID.TID 0000.0001) bi,bj,prof_num,num_var        18        1      256        2
(PID.TID 0000.0001) bi,bj,prof_num,num_var        18        1      256        3
(PID.TID 0000.0001) bi,bj,prof_num,num_var        18        1      256        4
(PID.TID 0000.0001) bi,bj,prof_num,num_var        18        1      256        5
(PID.TID 0000.0001) bi,bj,prof_num,num_var        18        1      256        6
(PID.TID 0000.0001) buffer readvector       509     1508      509      194     4420
(PID.TID 0000.0001) buffer readvector      1512     2511     1512      194     4420
(PID.TID 0000.0001) buffer readvector      2559     3558     2559      194     4420
(PID.TID 0000.0001) buffer readvector      3594     4420     3594      194     4420
(PID.TID 0000.0001) bi,bj,prof_num,num_var        19        1      194        1
(PID.TID 0000.0001) bi,bj,prof_num,num_var        19        1      194        2
(PID.TID 0000.0001) bi,bj,prof_num,num_var        19        1      194        3
(PID.TID 0000.0001) bi,bj,prof_num,num_var        19        1      194        4
(PID.TID 0000.0001) bi,bj,prof_num,num_var        19        1      194        5
(PID.TID 0000.0001) bi,bj,prof_num,num_var        19        1      194        6
(PID.TID 0000.0001) buffer readvector       637     1636      637      106     4420
(PID.TID 0000.0001) buffer readvector      1660     2659     1660      106     4420
(PID.TID 0000.0001) buffer readvector      2735     3734     2735      106     4420
(PID.TID 0000.0001) buffer readvector      3751     4420     3751      106     4420
(PID.TID 0000.0001) bi,bj,prof_num,num_var        20        1      106        1
(PID.TID 0000.0001) bi,bj,prof_num,num_var        20        1      106        2
(PID.TID 0000.0001) bi,bj,prof_num,num_var        20        1      106        3
(PID.TID 0000.0001) bi,bj,prof_num,num_var        20        1      106        4
(PID.TID 0000.0001) bi,bj,prof_num,num_var        20        1      106        5
(PID.TID 0000.0001) bi,bj,prof_num,num_var        20        1      106        6
(PID.TID 0000.0001) buffer readvector       537     1536      537      235     4420
(PID.TID 0000.0001) buffer readvector      1566     2565     1566      235     4420
(PID.TID 0000.0001) buffer readvector      2585     3584     2585      235     4420
(PID.TID 0000.0001) buffer readvector      3605     4420     3605      235     4420
(PID.TID 0000.0001) bi,bj,prof_num,num_var        21        1      235        1
(PID.TID 0000.0001) bi,bj,prof_num,num_var        21        1      235        2
(PID.TID 0000.0001) bi,bj,prof_num,num_var        21        1      235        3
(PID.TID 0000.0001) bi,bj,prof_num,num_var        21        1      235        4
(PID.TID 0000.0001) bi,bj,prof_num,num_var        21        1      235        5
(PID.TID 0000.0001) bi,bj,prof_num,num_var        21        1      235        6
(PID.TID 0000.0001) buffer readvector       542     1541      542      212     4420
(PID.TID 0000.0001) buffer readvector      1577     2576     1577      212     4420
(PID.TID 0000.0001) buffer readvector      2611     3610     2611      212     4420
(PID.TID 0000.0001) buffer readvector      3646     4420     3646      212     4420
(PID.TID 0000.0001) bi,bj,prof_num,num_var        22        1      212        1
(PID.TID 0000.0001) bi,bj,prof_num,num_var        22        1      212        2
(PID.TID 0000.0001) bi,bj,prof_num,num_var        22        1      212        3
(PID.TID 0000.0001) bi,bj,prof_num,num_var        22        1      212        4
(PID.TID 0000.0001) bi,bj,prof_num,num_var        22        1      212        5
(PID.TID 0000.0001) bi,bj,prof_num,num_var        22        1      212        6
(PID.TID 0000.0001) buffer readvector       528     1527      528      225     4420
(PID.TID 0000.0001) buffer readvector      1555     2554     1555      225     4420
(PID.TID 0000.0001) buffer readvector      2569     3568     2569      225     4420
(PID.TID 0000.0001) buffer readvector      3580     4420     3580      225     4420
(PID.TID 0000.0001) bi,bj,prof_num,num_var        23        1      225        1
(PID.TID 0000.0001) bi,bj,prof_num,num_var        23        1      225        2
(PID.TID 0000.0001) bi,bj,prof_num,num_var        23        1      225        3
(PID.TID 0000.0001) bi,bj,prof_num,num_var        23        1      225        4
(PID.TID 0000.0001) bi,bj,prof_num,num_var        23        1      225        5
(PID.TID 0000.0001) bi,bj,prof_num,num_var        23        1      225        6
(PID.TID 0000.0001) buffer readvector       544     1543      544      213     4420
(PID.TID 0000.0001) buffer readvector      1585     2584     1585      213     4420
(PID.TID 0000.0001) buffer readvector      2601     3600     2601      213     4420
(PID.TID 0000.0001) buffer readvector      3614     4420     3614      213     4420
(PID.TID 0000.0001) bi,bj,prof_num,num_var        24        1      213        1
(PID.TID 0000.0001) bi,bj,prof_num,num_var        24        1      213        2
(PID.TID 0000.0001) bi,bj,prof_num,num_var        24        1      213        3
(PID.TID 0000.0001) bi,bj,prof_num,num_var        24        1      213        4
(PID.TID 0000.0001) bi,bj,prof_num,num_var        24        1      213        5
(PID.TID 0000.0001) bi,bj,prof_num,num_var        24        1      213        6
 --> f_ice     = 0.000000000000000D+00
 --> f_smrarea = 0.000000000000000D+00
 --> f_smrarea = 0.000000000000000D+00
 --> f_smrarea = 0.000000000000000D+00
 --> f_temp    = 0.365003537273578D+05
 --> f_salt    = 0.247660882360145D+05
 --> f_temp0   = 0.999999955296517D-04
 --> f_salt0   = 0.000000000000000D+00
 --> f_temp0smoo = 0.000000000000000D+00
 --> f_salt0smoo = 0.000000000000000D+00
 --> f_etan0   = 0.000000000000000D+00
 --> f_uvel0   = 0.000000000000000D+00
 --> f_vvel0   = 0.000000000000000D+00
 --> f_sst     = 0.000000000000000D+00
 --> f_tmi     = 0.000000000000000D+00
 --> f_sss     = 0.000000000000000D+00
 --> f_bp      = 0.000000000000000D+00
 --> f_ies      = 0.000000000000000D+00
 --> f_ssh       = 0.000000000000000D+00
 --> f_tp        = 0.000000000000000D+00
 --> f_ers       = 0.000000000000000D+00
 --> f_gfo       = 0.000000000000000D+00
 --> f_tauu    = 0.000000000000000D+00
 --> f_tauum   = 0.000000000000000D+00
 --> f_tauusmoo = 0.000000000000000D+00
 --> f_tauv    = 0.000000000000000D+00
 --> f_tauvm   = 0.000000000000000D+00
 --> f_tauvsmoo = 0.000000000000000D+00
 --> f_hflux   = 0.000000000000000D+00
 --> f_hfluxmm = 0.000000000000000D+00
 --> f_hfluxsmoo = 0.000000000000000D+00
 --> f_sflux   = 0.000000000000000D+00
 --> f_sfluxmm = 0.000000000000000D+00
 --> f_sfluxsmoo = 0.000000000000000D+00
 --> f_uwind     = 0.000000000000000D+00
 --> f_vwind     = 0.000000000000000D+00
 --> f_atemp     = 0.000000000000000D+00
 --> f_aqh     = 0.000000000000000D+00
 --> f_precip  = 0.000000000000000D+00
 --> f_swflux  = 0.000000000000000D+00
 --> f_swdown  = 0.000000000000000D+00
 --> f_uwindm     = 0.000000000000000D+00
 --> f_vwindm     = 0.000000000000000D+00
 --> f_atempm     = 0.000000000000000D+00
 --> f_aqhm     = 0.000000000000000D+00
 --> f_precipm  = 0.000000000000000D+00
 --> f_swfluxm  = 0.000000000000000D+00
 --> f_swdownm  = 0.000000000000000D+00
 --> f_uwindsmoo     = 0.000000000000000D+00
 --> f_vwindsmoo     = 0.000000000000000D+00
 --> f_atempsmoo     = 0.000000000000000D+00
 --> f_aqhsmoo     = 0.000000000000000D+00
 --> f_precipsmoo  = 0.000000000000000D+00
 --> f_swfluxsmoo  = 0.000000000000000D+00
 --> f_swdownsmoo  = 0.000000000000000D+00
 --> f_atl     = 0.000000000000000D+00
 --> f_ctdt    = 0.000000000000000D+00
 --> f_ctds    = 0.000000000000000D+00
 --> f_ctdtclim= 0.000000000000000D+00
 --> f_ctdsclim= 0.000000000000000D+00
 --> f_xbt     = 0.000000000000000D+00
 --> f_argot   = 0.000000000000000D+00
 --> f_argos   = 0.000000000000000D+00
 --> f_drifter   = 0.000000000000000D+00
 --> f_tdrift  = 0.000000000000000D+00
 --> f_sdrift  = 0.000000000000000D+00
 --> f_wdrift  = 0.000000000000000D+00
 --> f_scatx   = 0.000000000000000D+00
 --> f_scaty   = 0.000000000000000D+00
 --> f_scatxm  = 0.000000000000000D+00
 --> f_scatym  = 0.000000000000000D+00
 --> f_obcsn   = 0.000000000000000D+00
 --> f_obcss   = 0.000000000000000D+00
 --> f_obcsw   = 0.000000000000000D+00
 --> f_obcse   = 0.000000000000000D+00
 --> f_ageos   = 0.000000000000000D+00
 --> f_curmtr  = 0.000000000000000D+00
 --> f_kapgm   = 0.000000000000000D+00
 --> f_kapredi   = 0.000000000000000D+00
 --> f_diffkr  = 0.000000000000000D+00
 --> f_eddytau = 0.000000000000000D+00
 --> f_bottomdrag = 0.000000000000000D+00
 --> f_profiles = 0.134974111642486D+04 1 1
 --> f_profiles = 0.229260626916411D+05 1 2
 --> f_profiles = 0.000000000000000D+00 1 3
 --> f_profiles = 0.000000000000000D+00 1 4
 --> f_profiles = 0.000000000000000D+00 1 5
 --> f_profiles = 0.000000000000000D+00 1 6
 --> f_hfluxmm2           = 0.000000000000000D+00
 --> f_sfluxmm2           = 0.000000000000000D+00
 --> f_transp             = 0.000000000000000D+00
 --> objf_hmean           = 0.000000000000000D+00
 --> fc               = 0.000000000000000D+00
  early fc =  0.000000000000000D+00
 --> objf_test(bi,bj)   =  0.000000000000000D+00
 --> objf_tracer(bi,bj) =  0.000000000000000D+00
 --> objf_atl(bi,bj)    =  0.000000000000000D+00
 --> objf_test(bi,bj)   =  0.000000000000000D+00
 --> objf_tracer(bi,bj) =  0.000000000000000D+00
 --> objf_atl(bi,bj)    =  0.000000000000000D+00
 --> objf_test(bi,bj)   =  0.000000000000000D+00
 --> objf_tracer(bi,bj) =  0.000000000000000D+00
 --> objf_atl(bi,bj)    =  0.000000000000000D+00
 --> objf_test(bi,bj)   =  0.000000000000000D+00
 --> objf_tracer(bi,bj) =  0.000000000000000D+00
 --> objf_atl(bi,bj)    =  0.000000000000000D+00
 --> objf_test(bi,bj)   =  0.000000000000000D+00
 --> objf_tracer(bi,bj) =  0.000000000000000D+00
 --> objf_atl(bi,bj)    =  0.000000000000000D+00
 --> objf_test(bi,bj)   =  0.000000000000000D+00
 --> objf_tracer(bi,bj) =  0.000000000000000D+00
 --> objf_atl(bi,bj)    =  0.000000000000000D+00
 --> objf_test(bi,bj)   =  0.000000000000000D+00
 --> objf_tracer(bi,bj) =  0.000000000000000D+00
 --> objf_atl(bi,bj)    =  0.000000000000000D+00
 --> objf_test(bi,bj)   =  0.000000000000000D+00
 --> objf_tracer(bi,bj) =  0.000000000000000D+00
 --> objf_atl(bi,bj)    =  0.000000000000000D+00
 --> objf_test(bi,bj)   =  0.000000000000000D+00
 --> objf_tracer(bi,bj) =  0.000000000000000D+00
 --> objf_atl(bi,bj)    =  0.000000000000000D+00
 --> objf_test(bi,bj)   =  0.000000000000000D+00
 --> objf_tracer(bi,bj) =  0.000000000000000D+00
 --> objf_atl(bi,bj)    =  0.000000000000000D+00
 --> objf_test(bi,bj)   =  0.000000000000000D+00
 --> objf_tracer(bi,bj) =  0.000000000000000D+00
 --> objf_atl(bi,bj)    =  0.000000000000000D+00
 --> objf_test(bi,bj)   =  0.000000000000000D+00
 --> objf_tracer(bi,bj) =  0.000000000000000D+00
 --> objf_atl(bi,bj)    =  0.000000000000000D+00
 --> objf_test(bi,bj)   =  0.000000000000000D+00
 --> objf_tracer(bi,bj) =  0.000000000000000D+00
 --> objf_atl(bi,bj)    =  0.000000000000000D+00
 --> objf_test(bi,bj)   =  0.000000000000000D+00
 --> objf_tracer(bi,bj) =  0.000000000000000D+00
 --> objf_atl(bi,bj)    =  0.000000000000000D+00
 --> objf_test(bi,bj)   =  0.000000000000000D+00
 --> objf_tracer(bi,bj) =  0.000000000000000D+00
 --> objf_atl(bi,bj)    =  0.000000000000000D+00
 --> objf_test(bi,bj)   =  0.000000000000000D+00
 --> objf_tracer(bi,bj) =  0.000000000000000D+00
 --> objf_atl(bi,bj)    =  0.000000000000000D+00
 --> objf_test(bi,bj)   =  0.000000000000000D+00
 --> objf_tracer(bi,bj) =  0.000000000000000D+00
 --> objf_atl(bi,bj)    =  0.000000000000000D+00
 --> objf_test(bi,bj)   =  0.000000000000000D+00
 --> objf_tracer(bi,bj) =  0.000000000000000D+00
 --> objf_atl(bi,bj)    =  0.000000000000000D+00
 --> objf_test(bi,bj)   =  0.000000000000000D+00
 --> objf_tracer(bi,bj) =  0.000000000000000D+00
 --> objf_atl(bi,bj)    =  0.000000000000000D+00
 --> objf_test(bi,bj)   =  0.000000000000000D+00
 --> objf_tracer(bi,bj) =  0.000000000000000D+00
 --> objf_atl(bi,bj)    =  0.000000000000000D+00
 --> objf_test(bi,bj)   =  0.000000000000000D+00
 --> objf_tracer(bi,bj) =  0.000000000000000D+00
 --> objf_atl(bi,bj)    =  0.000000000000000D+00
 --> objf_test(bi,bj)   =  0.000000000000000D+00
 --> objf_tracer(bi,bj) =  0.000000000000000D+00
 --> objf_atl(bi,bj)    =  0.000000000000000D+00
 --> objf_test(bi,bj)   =  0.000000000000000D+00
 --> objf_tracer(bi,bj) =  0.000000000000000D+00
 --> objf_atl(bi,bj)    =  0.000000000000000D+00
 --> objf_test(bi,bj)   =  0.000000000000000D+00
 --> objf_tracer(bi,bj) =  0.000000000000000D+00
 --> objf_atl(bi,bj)    =  0.000000000000000D+00
  local fc =  0.242758039080660D+05
 global fc =  0.242758039080660D+05
(PID.TID 0000.0001) grdchk perturb(+)fc: fcpertplus  =  2.42758039080660E+04
(PID.TID 0000.0001) Start initial hydrostatic pressure computation
(PID.TID 0000.0001) Pressure is predetermined for buoyancyRelation OCEANIC
(PID.TID 0000.0001) 
(PID.TID 0000.0001) // =======================================================
(PID.TID 0000.0001) // Model current state
(PID.TID 0000.0001) // =======================================================
(PID.TID 0000.0001) 
(PID.TID 0000.0001) SOLVE_FOR_PRESSURE: putPmEinXvector =    F
 cg2d: Sum(rhs),rhsMax =   7.73551084252183E-01  6.80494402308723E+00
 cg2d: Sum(rhs),rhsMax =   1.52697378602264E+00  8.23373653123258E+00
 cg2d: Sum(rhs),rhsMax =   2.27601803680732E+00  7.98039283376827E+00
 cg2d: Sum(rhs),rhsMax =   3.02165664450661E+00  7.75066850220050E+00
 cg2d: Sum(rhs),rhsMax =   3.74608633815302E+00  7.66158157144759E+00
 cg2d: Sum(rhs),rhsMax =   4.45761504198217E+00  7.62173353215339E+00
 cg2d: Sum(rhs),rhsMax =   5.15911108937203E+00  7.59748648833277E+00
 cg2d: Sum(rhs),rhsMax =   5.85339172245136E+00  7.57707686908037E+00
(PID.TID 0000.0001) Did not write pickup because writePickupAtEnd = FALSE
(PID.TID 0000.0001) ph-cost call cost_theta0
(PID.TID 0000.0001) ph-cost call cost_salt0
(PID.TID 0000.0001) ph-cost call cost_theta
(PID.TID 0000.0001) ph-cost call cost_salt
(PID.TID 0000.0001) buffer readvector         1       11       11      237     4420
(PID.TID 0000.0001) buffer readvector        19     1018       19      237     4420
(PID.TID 0000.0001) buffer readvector      1036     2035     1036      237     4420
(PID.TID 0000.0001) buffer readvector      2037     3036     2037      237     4420
(PID.TID 0000.0001) buffer readvector      3045     4044     3045      237     4420
(PID.TID 0000.0001) buffer readvector      4050     4420     4050      237     4420
(PID.TID 0000.0001) bi,bj,prof_num,num_var         1        1      237        1
(PID.TID 0000.0001) bi,bj,prof_num,num_var         1        1      237        2
(PID.TID 0000.0001) bi,bj,prof_num,num_var         1        1      237        3
(PID.TID 0000.0001) bi,bj,prof_num,num_var         1        1      237        4
(PID.TID 0000.0001) bi,bj,prof_num,num_var         1        1      237        5
(PID.TID 0000.0001) bi,bj,prof_num,num_var         1        1      237        6
(PID.TID 0000.0001) buffer readvector         1       34       34      152     4420
(PID.TID 0000.0001) buffer readvector        42     1041       42      152     4420
(PID.TID 0000.0001) buffer readvector      1095     2094     1095      152     4420
(PID.TID 0000.0001) buffer readvector      2111     3110     2111      152     4420
(PID.TID 0000.0001) buffer readvector      3148     4147     3148      152     4420
(PID.TID 0000.0001) buffer readvector      4162     4420     4162      152     4420
(PID.TID 0000.0001) bi,bj,prof_num,num_var         2        1      152        1
(PID.TID 0000.0001) bi,bj,prof_num,num_var         2        1      152        2
(PID.TID 0000.0001) bi,bj,prof_num,num_var         2        1      152        3
(PID.TID 0000.0001) bi,bj,prof_num,num_var         2        1      152        4
(PID.TID 0000.0001) bi,bj,prof_num,num_var         2        1      152        5
(PID.TID 0000.0001) bi,bj,prof_num,num_var         2        1      152        6
(PID.TID 0000.0001) buffer readvector         1        8        8      205     4420
(PID.TID 0000.0001) buffer readvector        24     1023       24      205     4420
(PID.TID 0000.0001) buffer readvector      1027     2026     1027      205     4420
(PID.TID 0000.0001) buffer readvector      2031     3030     2031      205     4420
(PID.TID 0000.0001) buffer readvector      3066     4065     3066      205     4420
(PID.TID 0000.0001) buffer readvector      4066     4420     4066      205     4420
(PID.TID 0000.0001) bi,bj,prof_num,num_var         3        1      205        1
(PID.TID 0000.0001) bi,bj,prof_num,num_var         3        1      205        2
(PID.TID 0000.0001) bi,bj,prof_num,num_var         3        1      205        3
(PID.TID 0000.0001) bi,bj,prof_num,num_var         3        1      205        4
(PID.TID 0000.0001) bi,bj,prof_num,num_var         3        1      205        5
(PID.TID 0000.0001) bi,bj,prof_num,num_var         3        1      205        6
(PID.TID 0000.0001) buffer readvector         1        7        7       45     4420
(PID.TID 0000.0001) buffer readvector       150     1149      150       45     4420
(PID.TID 0000.0001) buffer readvector      1233     2232     1233       45     4420
(PID.TID 0000.0001) buffer readvector      2437     3436     2437       45     4420
(PID.TID 0000.0001) buffer readvector      3684     4420     3684       45     4420
(PID.TID 0000.0001) bi,bj,prof_num,num_var         4        1       45        1
(PID.TID 0000.0001) bi,bj,prof_num,num_var         4        1       45        2
(PID.TID 0000.0001) bi,bj,prof_num,num_var         4        1       45        3
(PID.TID 0000.0001) bi,bj,prof_num,num_var         4        1       45        4
(PID.TID 0000.0001) bi,bj,prof_num,num_var         4        1       45        5
(PID.TID 0000.0001) bi,bj,prof_num,num_var         4        1       45        6
(PID.TID 0000.0001) buffer readvector         1        3        3      250     4420
(PID.TID 0000.0001) buffer readvector        12     1011       12      250     4420
(PID.TID 0000.0001) buffer readvector      1031     2030     1031      250     4420
(PID.TID 0000.0001) buffer readvector      2091     3090     2091      250     4420
(PID.TID 0000.0001) buffer readvector      3108     4107     3108      250     4420
(PID.TID 0000.0001) buffer readvector      4121     4420     4121      250     4420
(PID.TID 0000.0001) bi,bj,prof_num,num_var         5        1      250        1
(PID.TID 0000.0001) bi,bj,prof_num,num_var         5        1      250        2
(PID.TID 0000.0001) bi,bj,prof_num,num_var         5        1      250        3
(PID.TID 0000.0001) bi,bj,prof_num,num_var         5        1      250        4
(PID.TID 0000.0001) bi,bj,prof_num,num_var         5        1      250        5
(PID.TID 0000.0001) bi,bj,prof_num,num_var         5        1      250        6
(PID.TID 0000.0001) buffer readvector         1       10       10      192     4420
(PID.TID 0000.0001) buffer readvector        38     1037       38      192     4420
(PID.TID 0000.0001) buffer readvector      1047     2046     1047      192     4420
(PID.TID 0000.0001) buffer readvector      2049     3048     2049      192     4420
(PID.TID 0000.0001) buffer readvector      3104     4103     3104      192     4420
(PID.TID 0000.0001) buffer readvector      4109     4420     4109      192     4420
(PID.TID 0000.0001) bi,bj,prof_num,num_var         6        1      192        1
(PID.TID 0000.0001) bi,bj,prof_num,num_var         6        1      192        2
(PID.TID 0000.0001) bi,bj,prof_num,num_var         6        1      192        3
(PID.TID 0000.0001) bi,bj,prof_num,num_var         6        1      192        4
(PID.TID 0000.0001) bi,bj,prof_num,num_var         6        1      192        5
(PID.TID 0000.0001) bi,bj,prof_num,num_var         6        1      192        6
(PID.TID 0000.0001) buffer readvector         1        4        4      108     4420
(PID.TID 0000.0001) buffer readvector        20     1019       20      108     4420
(PID.TID 0000.0001) buffer readvector      1075     2074     1075      108     4420
(PID.TID 0000.0001) buffer readvector      2143     3142     2143      108     4420
(PID.TID 0000.0001) buffer readvector      3165     4164     3165      108     4420
(PID.TID 0000.0001) buffer readvector      4201     4420     4201      108     4420
(PID.TID 0000.0001) bi,bj,prof_num,num_var         7        1      108        1
(PID.TID 0000.0001) bi,bj,prof_num,num_var         7        1      108        2
(PID.TID 0000.0001) bi,bj,prof_num,num_var         7        1      108        3
(PID.TID 0000.0001) bi,bj,prof_num,num_var         7        1      108        4
(PID.TID 0000.0001) bi,bj,prof_num,num_var         7        1      108        5
(PID.TID 0000.0001) bi,bj,prof_num,num_var         7        1      108        6
(PID.TID 0000.0001) buffer readvector         1       22       22      146     4420
(PID.TID 0000.0001) buffer readvector        53     1052       53      146     4420
(PID.TID 0000.0001) buffer readvector      1080     2079     1080      146     4420
(PID.TID 0000.0001) buffer readvector      2105     3104     2105      146     4420
(PID.TID 0000.0001) buffer readvector      3120     4119     3120      146     4420
(PID.TID 0000.0001) buffer readvector      4122     4420     4122      146     4420
(PID.TID 0000.0001) bi,bj,prof_num,num_var         8        1      146        1
(PID.TID 0000.0001) bi,bj,prof_num,num_var         8        1      146        2
(PID.TID 0000.0001) bi,bj,prof_num,num_var         8        1      146        3
(PID.TID 0000.0001) bi,bj,prof_num,num_var         8        1      146        4
(PID.TID 0000.0001) bi,bj,prof_num,num_var         8        1      146        5
(PID.TID 0000.0001) bi,bj,prof_num,num_var         8        1      146        6
(PID.TID 0000.0001) buffer readvector         1       93       93       55     4420
(PID.TID 0000.0001) buffer readvector       123     1122      123       55     4420
(PID.TID 0000.0001) buffer readvector      1148     2147     1148       55     4420
(PID.TID 0000.0001) buffer readvector      2174     3173     2174       55     4420
(PID.TID 0000.0001) buffer readvector      3177     4176     3177       55     4420
(PID.TID 0000.0001) buffer readvector      4244     4420     4244       55     4420
(PID.TID 0000.0001) bi,bj,prof_num,num_var         9        1       55        1
(PID.TID 0000.0001) bi,bj,prof_num,num_var         9        1       55        2
(PID.TID 0000.0001) bi,bj,prof_num,num_var         9        1       55        3
(PID.TID 0000.0001) bi,bj,prof_num,num_var         9        1       55        4
(PID.TID 0000.0001) bi,bj,prof_num,num_var         9        1       55        5
(PID.TID 0000.0001) bi,bj,prof_num,num_var         9        1       55        6
(PID.TID 0000.0001) buffer readvector         1       52       52      111     4420
(PID.TID 0000.0001) buffer readvector        90     1089       90      111     4420
(PID.TID 0000.0001) buffer readvector      1099     2098     1099      111     4420
(PID.TID 0000.0001) buffer readvector      2122     3121     2122      111     4420
(PID.TID 0000.0001) buffer readvector      3167     4166     3167      111     4420
(PID.TID 0000.0001) buffer readvector      4214     4420     4214      111     4420
(PID.TID 0000.0001) bi,bj,prof_num,num_var        10        1      111        1
(PID.TID 0000.0001) bi,bj,prof_num,num_var        10        1      111        2
(PID.TID 0000.0001) bi,bj,prof_num,num_var        10        1      111        3
(PID.TID 0000.0001) bi,bj,prof_num,num_var        10        1      111        4
(PID.TID 0000.0001) bi,bj,prof_num,num_var        10        1      111        5
(PID.TID 0000.0001) bi,bj,prof_num,num_var        10        1      111        6
(PID.TID 0000.0001) buffer readvector         1       43       43      185     4420
(PID.TID 0000.0001) buffer readvector        48     1047       48      185     4420
(PID.TID 0000.0001) buffer readvector      1062     2061     1062      185     4420
(PID.TID 0000.0001) buffer readvector      2114     3113     2114      185     4420
(PID.TID 0000.0001) buffer readvector      3126     4125     3126      185     4420
(PID.TID 0000.0001) buffer readvector      4163     4420     4163      185     4420
(PID.TID 0000.0001) bi,bj,prof_num,num_var        11        1      185        1
(PID.TID 0000.0001) bi,bj,prof_num,num_var        11        1      185        2
(PID.TID 0000.0001) bi,bj,prof_num,num_var        11        1      185        3
(PID.TID 0000.0001) bi,bj,prof_num,num_var        11        1      185        4
(PID.TID 0000.0001) bi,bj,prof_num,num_var        11        1      185        5
(PID.TID 0000.0001) bi,bj,prof_num,num_var        11        1      185        6
(PID.TID 0000.0001) buffer readvector         1       23       23      152     4420
(PID.TID 0000.0001) buffer readvector        25     1024       25      152     4420
(PID.TID 0000.0001) buffer readvector      1064     2063     1064      152     4420
(PID.TID 0000.0001) buffer readvector      2093     3092     2093      152     4420
(PID.TID 0000.0001) buffer readvector      3105     4104     3105      152     4420
(PID.TID 0000.0001) buffer readvector      4127     4420     4127      152     4420
(PID.TID 0000.0001) bi,bj,prof_num,num_var        12        1      152        1
(PID.TID 0000.0001) bi,bj,prof_num,num_var        12        1      152        2
(PID.TID 0000.0001) bi,bj,prof_num,num_var        12        1      152        3
(PID.TID 0000.0001) bi,bj,prof_num,num_var        12        1      152        4
(PID.TID 0000.0001) bi,bj,prof_num,num_var        12        1      152        5
(PID.TID 0000.0001) bi,bj,prof_num,num_var        12        1      152        6
(PID.TID 0000.0001) buffer readvector         1        1        1      253     4420
(PID.TID 0000.0001) buffer readvector         2     1001        2      253     4420
(PID.TID 0000.0001) buffer readvector      1016     2015     1016      253     4420
(PID.TID 0000.0001) buffer readvector      2028     3027     2028      253     4420
(PID.TID 0000.0001) buffer readvector      3038     4037     3038      253     4420
(PID.TID 0000.0001) buffer readvector      4045     4420     4045      253     4420
(PID.TID 0000.0001) bi,bj,prof_num,num_var        13        1      253        1
(PID.TID 0000.0001) bi,bj,prof_num,num_var        13        1      253        2
(PID.TID 0000.0001) bi,bj,prof_num,num_var        13        1      253        3
(PID.TID 0000.0001) bi,bj,prof_num,num_var        13        1      253        4
(PID.TID 0000.0001) bi,bj,prof_num,num_var        13        1      253        5
(PID.TID 0000.0001) bi,bj,prof_num,num_var        13        1      253        6
(PID.TID 0000.0001) buffer readvector         1       65       65      187     4420
(PID.TID 0000.0001) buffer readvector        84     1083       84      187     4420
(PID.TID 0000.0001) buffer readvector      1088     2087     1088      187     4420
(PID.TID 0000.0001) buffer readvector      2090     3089     2090      187     4420
(PID.TID 0000.0001) buffer readvector      3099     4098     3099      187     4420
(PID.TID 0000.0001) buffer readvector      4104     4420     4104      187     4420
(PID.TID 0000.0001) bi,bj,prof_num,num_var        14        1      187        1
(PID.TID 0000.0001) bi,bj,prof_num,num_var        14        1      187        2
(PID.TID 0000.0001) bi,bj,prof_num,num_var        14        1      187        3
(PID.TID 0000.0001) bi,bj,prof_num,num_var        14        1      187        4
(PID.TID 0000.0001) bi,bj,prof_num,num_var        14        1      187        5
(PID.TID 0000.0001) bi,bj,prof_num,num_var        14        1      187        6
(PID.TID 0000.0001) buffer readvector         1       27       27      256     4420
(PID.TID 0000.0001) buffer readvector        28     1027       28      256     4420
(PID.TID 0000.0001) buffer readvector      1038     2037     1038      256     4420
(PID.TID 0000.0001) buffer readvector      2047     3046     2047      256     4420
(PID.TID 0000.0001) buffer readvector      3057     4056     3057      256     4420
(PID.TID 0000.0001) buffer readvector      4059     4420     4059      256     4420
(PID.TID 0000.0001) bi,bj,prof_num,num_var        15        1      256        1
(PID.TID 0000.0001) bi,bj,prof_num,num_var        15        1      256        2
(PID.TID 0000.0001) bi,bj,prof_num,num_var        15        1      256        3
(PID.TID 0000.0001) bi,bj,prof_num,num_var        15        1      256        4
(PID.TID 0000.0001) bi,bj,prof_num,num_var        15        1      256        5
(PID.TID 0000.0001) bi,bj,prof_num,num_var        15        1      256        6
(PID.TID 0000.0001) buffer readvector         1        9        9      257     4420
(PID.TID 0000.0001) buffer readvector        88     1087       88      257     4420
(PID.TID 0000.0001) buffer readvector      1121     2120     1121      257     4420
(PID.TID 0000.0001) buffer readvector      2133     3132     2133      257     4420
(PID.TID 0000.0001) buffer readvector      3155     4154     3155      257     4420
(PID.TID 0000.0001) buffer readvector      4199     4420     4199      257     4420
(PID.TID 0000.0001) bi,bj,prof_num,num_var        16        1      257        1
(PID.TID 0000.0001) bi,bj,prof_num,num_var        16        1      257        2
(PID.TID 0000.0001) bi,bj,prof_num,num_var        16        1      257        3
(PID.TID 0000.0001) bi,bj,prof_num,num_var        16        1      257        4
(PID.TID 0000.0001) bi,bj,prof_num,num_var        16        1      257        5
(PID.TID 0000.0001) bi,bj,prof_num,num_var        16        1      257        6
(PID.TID 0000.0001) buffer readvector         1       15       15      188     4420
(PID.TID 0000.0001) buffer readvector        54     1053       54      188     4420
(PID.TID 0000.0001) buffer readvector      1092     2091     1092      188     4420
(PID.TID 0000.0001) buffer readvector      2103     3102     2103      188     4420
(PID.TID 0000.0001) buffer readvector      3209     4208     3209      188     4420
(PID.TID 0000.0001) buffer readvector      4242     4420     4242      188     4420
(PID.TID 0000.0001) bi,bj,prof_num,num_var        17        1      188        1
(PID.TID 0000.0001) bi,bj,prof_num,num_var        17        1      188        2
(PID.TID 0000.0001) bi,bj,prof_num,num_var        17        1      188        3
(PID.TID 0000.0001) bi,bj,prof_num,num_var        17        1      188        4
(PID.TID 0000.0001) bi,bj,prof_num,num_var        17        1      188        5
(PID.TID 0000.0001) bi,bj,prof_num,num_var        17        1      188        6
(PID.TID 0000.0001) buffer readvector         1        6        6      256     4420
(PID.TID 0000.0001) buffer readvector        21     1020       21      256     4420
(PID.TID 0000.0001) buffer readvector      1034     2033     1034      256     4420
(PID.TID 0000.0001) buffer readvector      2040     3039     2040      256     4420
(PID.TID 0000.0001) buffer readvector      3055     4054     3055      256     4420
(PID.TID 0000.0001) buffer readvector      4088     4420     4088      256     4420
(PID.TID 0000.0001) bi,bj,prof_num,num_var        18        1      256        1
(PID.TID 0000.0001) bi,bj,prof_num,num_var        18        1      256        2
(PID.TID 0000.0001) bi,bj,prof_num,num_var        18        1      256        3
(PID.TID 0000.0001) bi,bj,prof_num,num_var        18        1      256        4
(PID.TID 0000.0001) bi,bj,prof_num,num_var        18        1      256        5
(PID.TID 0000.0001) bi,bj,prof_num,num_var        18        1      256        6
(PID.TID 0000.0001) buffer readvector         1       49       49      194     4420
(PID.TID 0000.0001) buffer readvector        63     1062       63      194     4420
(PID.TID 0000.0001) buffer readvector      1091     2090     1091      194     4420
(PID.TID 0000.0001) buffer readvector      2129     3128     2129      194     4420
(PID.TID 0000.0001) buffer readvector      3207     4206     3207      194     4420
(PID.TID 0000.0001) buffer readvector      4216     4420     4216      194     4420
(PID.TID 0000.0001) bi,bj,prof_num,num_var        19        1      194        1
(PID.TID 0000.0001) bi,bj,prof_num,num_var        19        1      194        2
(PID.TID 0000.0001) bi,bj,prof_num,num_var        19        1      194        3
(PID.TID 0000.0001) bi,bj,prof_num,num_var        19        1      194        4
(PID.TID 0000.0001) bi,bj,prof_num,num_var        19        1      194        5
(PID.TID 0000.0001) bi,bj,prof_num,num_var        19        1      194        6
(PID.TID 0000.0001) buffer readvector         1      104      104      106     4420
(PID.TID 0000.0001) buffer readvector       111     1110      111      106     4420
(PID.TID 0000.0001) buffer readvector      1166     2165     1166      106     4420
(PID.TID 0000.0001) buffer readvector      2167     3166     2167      106     4420
(PID.TID 0000.0001) buffer readvector      3184     4183     3184      106     4420
(PID.TID 0000.0001) buffer readvector      4269     4420     4269      106     4420
(PID.TID 0000.0001) bi,bj,prof_num,num_var        20        1      106        1
(PID.TID 0000.0001) bi,bj,prof_num,num_var        20        1      106        2
(PID.TID 0000.0001) bi,bj,prof_num,num_var        20        1      106        3
(PID.TID 0000.0001) bi,bj,prof_num,num_var        20        1      106        4
(PID.TID 0000.0001) bi,bj,prof_num,num_var        20        1      106        5
(PID.TID 0000.0001) bi,bj,prof_num,num_var        20        1      106        6
(PID.TID 0000.0001) buffer readvector         1       29       29      235     4420
(PID.TID 0000.0001) buffer readvector        55     1054       55      235     4420
(PID.TID 0000.0001) buffer readvector      1073     2072     1073      235     4420
(PID.TID 0000.0001) buffer readvector      2073     3072     2073      235     4420
(PID.TID 0000.0001) buffer readvector      3094     4093     3094      235     4420
(PID.TID 0000.0001) buffer readvector      4112     4420     4112      235     4420
(PID.TID 0000.0001) bi,bj,prof_num,num_var        21        1      235        1
(PID.TID 0000.0001) bi,bj,prof_num,num_var        21        1      235        2
(PID.TID 0000.0001) bi,bj,prof_num,num_var        21        1      235        3
(PID.TID 0000.0001) bi,bj,prof_num,num_var        21        1      235        4
(PID.TID 0000.0001) bi,bj,prof_num,num_var        21        1      235        5
(PID.TID 0000.0001) bi,bj,prof_num,num_var        21        1      235        6
(PID.TID 0000.0001) buffer readvector         1        5        5      212     4420
(PID.TID 0000.0001) buffer readvector        50     1049       50      212     4420
(PID.TID 0000.0001) buffer readvector      1051     2050     1051      212     4420
(PID.TID 0000.0001) buffer readvector      2067     3066     2067      212     4420
(PID.TID 0000.0001) buffer readvector      3084     4083     3084      212     4420
(PID.TID 0000.0001) buffer readvector      4087     4420     4087      212     4420
(PID.TID 0000.0001) bi,bj,prof_num,num_var        22        1      212        1
(PID.TID 0000.0001) bi,bj,prof_num,num_var        22        1      212        2
(PID.TID 0000.0001) bi,bj,prof_num,num_var        22        1      212        3
(PID.TID 0000.0001) bi,bj,prof_num,num_var        22        1      212        4
(PID.TID 0000.0001) bi,bj,prof_num,num_var        22        1      212        5
(PID.TID 0000.0001) bi,bj,prof_num,num_var        22        1      212        6
(PID.TID 0000.0001) buffer readvector         1       40       40      225     4420
(PID.TID 0000.0001) buffer readvector       119     1118      119      225     4420
(PID.TID 0000.0001) buffer readvector      1126     2125     1126      225     4420
(PID.TID 0000.0001) buffer readvector      2134     3133     2134      225     4420
(PID.TID 0000.0001) buffer readvector      3194     4193     3194      225     4420
(PID.TID 0000.0001) buffer readvector      4205     4420     4205      225     4420
(PID.TID 0000.0001) bi,bj,prof_num,num_var        23        1      225        1
(PID.TID 0000.0001) bi,bj,prof_num,num_var        23        1      225        2
(PID.TID 0000.0001) bi,bj,prof_num,num_var        23        1      225        3
(PID.TID 0000.0001) bi,bj,prof_num,num_var        23        1      225        4
(PID.TID 0000.0001) bi,bj,prof_num,num_var        23        1      225        5
(PID.TID 0000.0001) bi,bj,prof_num,num_var        23        1      225        6
(PID.TID 0000.0001) buffer readvector         1       13       13      213     4420
(PID.TID 0000.0001) buffer readvector        17     1016       17      213     4420
(PID.TID 0000.0001) buffer readvector      1022     2021     1022      213     4420
(PID.TID 0000.0001) buffer readvector      2022     3021     2022      213     4420
(PID.TID 0000.0001) buffer readvector      3032     4031     3032      213     4420
(PID.TID 0000.0001) buffer readvector      4040     4420     4040      213     4420
(PID.TID 0000.0001) bi,bj,prof_num,num_var        24        1      213        1
(PID.TID 0000.0001) bi,bj,prof_num,num_var        24        1      213        2
(PID.TID 0000.0001) bi,bj,prof_num,num_var        24        1      213        3
(PID.TID 0000.0001) bi,bj,prof_num,num_var        24        1      213        4
(PID.TID 0000.0001) bi,bj,prof_num,num_var        24        1      213        5
(PID.TID 0000.0001) bi,bj,prof_num,num_var        24        1      213        6
 --> f_ice     = 0.000000000000000D+00
 --> f_smrarea = 0.000000000000000D+00
 --> f_smrarea = 0.000000000000000D+00
 --> f_smrarea = 0.000000000000000D+00
 --> f_temp    = 0.365003509253201D+05
 --> f_salt    = 0.247660882156012D+05
 --> f_temp0   = 0.999999955296517D-04
 --> f_salt0   = 0.000000000000000D+00
 --> f_temp0smoo = 0.000000000000000D+00
 --> f_salt0smoo = 0.000000000000000D+00
 --> f_etan0   = 0.000000000000000D+00
 --> f_uvel0   = 0.000000000000000D+00
 --> f_vvel0   = 0.000000000000000D+00
 --> f_sst     = 0.000000000000000D+00
 --> f_tmi     = 0.000000000000000D+00
 --> f_sss     = 0.000000000000000D+00
 --> f_bp      = 0.000000000000000D+00
 --> f_ies      = 0.000000000000000D+00
 --> f_ssh       = 0.000000000000000D+00
 --> f_tp        = 0.000000000000000D+00
 --> f_ers       = 0.000000000000000D+00
 --> f_gfo       = 0.000000000000000D+00
 --> f_tauu    = 0.000000000000000D+00
 --> f_tauum   = 0.000000000000000D+00
 --> f_tauusmoo = 0.000000000000000D+00
 --> f_tauv    = 0.000000000000000D+00
 --> f_tauvm   = 0.000000000000000D+00
 --> f_tauvsmoo = 0.000000000000000D+00
 --> f_hflux   = 0.000000000000000D+00
 --> f_hfluxmm = 0.000000000000000D+00
 --> f_hfluxsmoo = 0.000000000000000D+00
 --> f_sflux   = 0.000000000000000D+00
 --> f_sfluxmm = 0.000000000000000D+00
 --> f_sfluxsmoo = 0.000000000000000D+00
 --> f_uwind     = 0.000000000000000D+00
 --> f_vwind     = 0.000000000000000D+00
 --> f_atemp     = 0.000000000000000D+00
 --> f_aqh     = 0.000000000000000D+00
 --> f_precip  = 0.000000000000000D+00
 --> f_swflux  = 0.000000000000000D+00
 --> f_swdown  = 0.000000000000000D+00
 --> f_uwindm     = 0.000000000000000D+00
 --> f_vwindm     = 0.000000000000000D+00
 --> f_atempm     = 0.000000000000000D+00
 --> f_aqhm     = 0.000000000000000D+00
 --> f_precipm  = 0.000000000000000D+00
 --> f_swfluxm  = 0.000000000000000D+00
 --> f_swdownm  = 0.000000000000000D+00
 --> f_uwindsmoo     = 0.000000000000000D+00
 --> f_vwindsmoo     = 0.000000000000000D+00
 --> f_atempsmoo     = 0.000000000000000D+00
 --> f_aqhsmoo     = 0.000000000000000D+00
 --> f_precipsmoo  = 0.000000000000000D+00
 --> f_swfluxsmoo  = 0.000000000000000D+00
 --> f_swdownsmoo  = 0.000000000000000D+00
 --> f_atl     = 0.000000000000000D+00
 --> f_ctdt    = 0.000000000000000D+00
 --> f_ctds    = 0.000000000000000D+00
 --> f_ctdtclim= 0.000000000000000D+00
 --> f_ctdsclim= 0.000000000000000D+00
 --> f_xbt     = 0.000000000000000D+00
 --> f_argot   = 0.000000000000000D+00
 --> f_argos   = 0.000000000000000D+00
 --> f_drifter   = 0.000000000000000D+00
 --> f_tdrift  = 0.000000000000000D+00
 --> f_sdrift  = 0.000000000000000D+00
 --> f_wdrift  = 0.000000000000000D+00
 --> f_scatx   = 0.000000000000000D+00
 --> f_scaty   = 0.000000000000000D+00
 --> f_scatxm  = 0.000000000000000D+00
 --> f_scatym  = 0.000000000000000D+00
 --> f_obcsn   = 0.000000000000000D+00
 --> f_obcss   = 0.000000000000000D+00
 --> f_obcsw   = 0.000000000000000D+00
 --> f_obcse   = 0.000000000000000D+00
 --> f_ageos   = 0.000000000000000D+00
 --> f_curmtr  = 0.000000000000000D+00
 --> f_kapgm   = 0.000000000000000D+00
 --> f_kapredi   = 0.000000000000000D+00
 --> f_diffkr  = 0.000000000000000D+00
 --> f_eddytau = 0.000000000000000D+00
 --> f_bottomdrag = 0.000000000000000D+00
 --> f_profiles = 0.134973081804416D+04 1 1
 --> f_profiles = 0.229260626039159D+05 1 2
 --> f_profiles = 0.000000000000000D+00 1 3
 --> f_profiles = 0.000000000000000D+00 1 4
 --> f_profiles = 0.000000000000000D+00 1 5
 --> f_profiles = 0.000000000000000D+00 1 6
 --> f_hfluxmm2           = 0.000000000000000D+00
 --> f_sfluxmm2           = 0.000000000000000D+00
 --> f_transp             = 0.000000000000000D+00
 --> objf_hmean           = 0.000000000000000D+00
 --> fc               = 0.000000000000000D+00
  early fc =  0.000000000000000D+00
 --> objf_test(bi,bj)   =  0.000000000000000D+00
 --> objf_tracer(bi,bj) =  0.000000000000000D+00
 --> objf_atl(bi,bj)    =  0.000000000000000D+00
 --> objf_test(bi,bj)   =  0.000000000000000D+00
 --> objf_tracer(bi,bj) =  0.000000000000000D+00
 --> objf_atl(bi,bj)    =  0.000000000000000D+00
 --> objf_test(bi,bj)   =  0.000000000000000D+00
 --> objf_tracer(bi,bj) =  0.000000000000000D+00
 --> objf_atl(bi,bj)    =  0.000000000000000D+00
 --> objf_test(bi,bj)   =  0.000000000000000D+00
 --> objf_tracer(bi,bj) =  0.000000000000000D+00
 --> objf_atl(bi,bj)    =  0.000000000000000D+00
 --> objf_test(bi,bj)   =  0.000000000000000D+00
 --> objf_tracer(bi,bj) =  0.000000000000000D+00
 --> objf_atl(bi,bj)    =  0.000000000000000D+00
 --> objf_test(bi,bj)   =  0.000000000000000D+00
 --> objf_tracer(bi,bj) =  0.000000000000000D+00
 --> objf_atl(bi,bj)    =  0.000000000000000D+00
 --> objf_test(bi,bj)   =  0.000000000000000D+00
 --> objf_tracer(bi,bj) =  0.000000000000000D+00
 --> objf_atl(bi,bj)    =  0.000000000000000D+00
 --> objf_test(bi,bj)   =  0.000000000000000D+00
 --> objf_tracer(bi,bj) =  0.000000000000000D+00
 --> objf_atl(bi,bj)    =  0.000000000000000D+00
 --> objf_test(bi,bj)   =  0.000000000000000D+00
 --> objf_tracer(bi,bj) =  0.000000000000000D+00
 --> objf_atl(bi,bj)    =  0.000000000000000D+00
 --> objf_test(bi,bj)   =  0.000000000000000D+00
 --> objf_tracer(bi,bj) =  0.000000000000000D+00
 --> objf_atl(bi,bj)    =  0.000000000000000D+00
 --> objf_test(bi,bj)   =  0.000000000000000D+00
 --> objf_tracer(bi,bj) =  0.000000000000000D+00
 --> objf_atl(bi,bj)    =  0.000000000000000D+00
 --> objf_test(bi,bj)   =  0.000000000000000D+00
 --> objf_tracer(bi,bj) =  0.000000000000000D+00
 --> objf_atl(bi,bj)    =  0.000000000000000D+00
 --> objf_test(bi,bj)   =  0.000000000000000D+00
 --> objf_tracer(bi,bj) =  0.000000000000000D+00
 --> objf_atl(bi,bj)    =  0.000000000000000D+00
 --> objf_test(bi,bj)   =  0.000000000000000D+00
 --> objf_tracer(bi,bj) =  0.000000000000000D+00
 --> objf_atl(bi,bj)    =  0.000000000000000D+00
 --> objf_test(bi,bj)   =  0.000000000000000D+00
 --> objf_tracer(bi,bj) =  0.000000000000000D+00
 --> objf_atl(bi,bj)    =  0.000000000000000D+00
 --> objf_test(bi,bj)   =  0.000000000000000D+00
 --> objf_tracer(bi,bj) =  0.000000000000000D+00
 --> objf_atl(bi,bj)    =  0.000000000000000D+00
 --> objf_test(bi,bj)   =  0.000000000000000D+00
 --> objf_tracer(bi,bj) =  0.000000000000000D+00
 --> objf_atl(bi,bj)    =  0.000000000000000D+00
 --> objf_test(bi,bj)   =  0.000000000000000D+00
 --> objf_tracer(bi,bj) =  0.000000000000000D+00
 --> objf_atl(bi,bj)    =  0.000000000000000D+00
 --> objf_test(bi,bj)   =  0.000000000000000D+00
 --> objf_tracer(bi,bj) =  0.000000000000000D+00
 --> objf_atl(bi,bj)    =  0.000000000000000D+00
 --> objf_test(bi,bj)   =  0.000000000000000D+00
 --> objf_tracer(bi,bj) =  0.000000000000000D+00
 --> objf_atl(bi,bj)    =  0.000000000000000D+00
 --> objf_test(bi,bj)   =  0.000000000000000D+00
 --> objf_tracer(bi,bj) =  0.000000000000000D+00
 --> objf_atl(bi,bj)    =  0.000000000000000D+00
 --> objf_test(bi,bj)   =  0.000000000000000D+00
 --> objf_tracer(bi,bj) =  0.000000000000000D+00
 --> objf_atl(bi,bj)    =  0.000000000000000D+00
 --> objf_test(bi,bj)   =  0.000000000000000D+00
 --> objf_tracer(bi,bj) =  0.000000000000000D+00
 --> objf_atl(bi,bj)    =  0.000000000000000D+00
 --> objf_test(bi,bj)   =  0.000000000000000D+00
 --> objf_tracer(bi,bj) =  0.000000000000000D+00
 --> objf_atl(bi,bj)    =  0.000000000000000D+00
  local fc =  0.242757935219600D+05
 global fc =  0.242757935219600D+05
(PID.TID 0000.0001) grdchk perturb(-)fc: fcpertminus =  2.42757935219600E+04
grad-res -------------------------------
 grad-res     0    1    1    1    1    1    1    1   2.42757986140E+04  2.42758039081E+04  2.42757935220E+04
 grad-res     0    1    1    1    0    1    1    1   5.14214992523E-01  5.19305298985E-01 -9.89917940180E-03
(PID.TID 0000.0001)  ADM  ref_cost_function      =  2.42757986140463E+04
(PID.TID 0000.0001)  ADM  adjoint_gradient       =  5.14214992523193E-01
(PID.TID 0000.0001)  ADM  finite-diff_grad       =  5.19305298985273E-01
(PID.TID 0000.0001) ====== End of gradient-check number   1 (ierr=  0) =======
(PID.TID 0000.0001) ====== Starts gradient-check number   2 (=ichknum) =======
 ph-test icomp, ncvarcomp, ichknum            2      185786           2
 ph-grd _loc: bi, bj, icomptest, ichknum            1           1           1           2
 ph-grd -->hit<--            2           1           1           1
(PID.TID 0000.0001) grdchk pos: i,j,k=    2    1    1 ; bi,bj=   1   1 ; iobc=  1 ; rec=   1
(PID.TID 0000.0001) Start initial hydrostatic pressure computation
(PID.TID 0000.0001) Pressure is predetermined for buoyancyRelation OCEANIC
(PID.TID 0000.0001) 
(PID.TID 0000.0001) // =======================================================
(PID.TID 0000.0001) // Model current state
(PID.TID 0000.0001) // =======================================================
(PID.TID 0000.0001) 
(PID.TID 0000.0001) SOLVE_FOR_PRESSURE: putPmEinXvector =    F
 cg2d: Sum(rhs),rhsMax =   7.73551084252162E-01  6.80494402337679E+00
 cg2d: Sum(rhs),rhsMax =   1.52697333048719E+00  8.23373653179021E+00
 cg2d: Sum(rhs),rhsMax =   2.27601716333486E+00  7.98039283457692E+00
 cg2d: Sum(rhs),rhsMax =   3.02165535923550E+00  7.75066850326953E+00
 cg2d: Sum(rhs),rhsMax =   3.74608464131487E+00  7.66158157277148E+00
 cg2d: Sum(rhs),rhsMax =   4.45761293667871E+00  7.62173353372908E+00
 cg2d: Sum(rhs),rhsMax =   5.15910857740167E+00  7.59748649015683E+00
 cg2d: Sum(rhs),rhsMax =   5.85338880493421E+00  7.57707687114921E+00
(PID.TID 0000.0001) Did not write pickup because writePickupAtEnd = FALSE
(PID.TID 0000.0001) ph-cost call cost_theta0
(PID.TID 0000.0001) ph-cost call cost_salt0
(PID.TID 0000.0001) ph-cost call cost_theta
(PID.TID 0000.0001) ph-cost call cost_salt
(PID.TID 0000.0001) buffer readvector         1       11       11      237     4420
(PID.TID 0000.0001) buffer readvector        19     1018       19      237     4420
(PID.TID 0000.0001) buffer readvector      1036     2035     1036      237     4420
(PID.TID 0000.0001) buffer readvector      2037     3036     2037      237     4420
(PID.TID 0000.0001) buffer readvector      3045     4044     3045      237     4420
(PID.TID 0000.0001) buffer readvector      4050     4420     4050      237     4420
(PID.TID 0000.0001) bi,bj,prof_num,num_var         1        1      237        1
(PID.TID 0000.0001) bi,bj,prof_num,num_var         1        1      237        2
(PID.TID 0000.0001) bi,bj,prof_num,num_var         1        1      237        3
(PID.TID 0000.0001) bi,bj,prof_num,num_var         1        1      237        4
(PID.TID 0000.0001) bi,bj,prof_num,num_var         1        1      237        5
(PID.TID 0000.0001) bi,bj,prof_num,num_var         1        1      237        6
(PID.TID 0000.0001) buffer readvector         1       34       34      152     4420
(PID.TID 0000.0001) buffer readvector        42     1041       42      152     4420
(PID.TID 0000.0001) buffer readvector      1095     2094     1095      152     4420
(PID.TID 0000.0001) buffer readvector      2111     3110     2111      152     4420
(PID.TID 0000.0001) buffer readvector      3148     4147     3148      152     4420
(PID.TID 0000.0001) buffer readvector      4162     4420     4162      152     4420
(PID.TID 0000.0001) bi,bj,prof_num,num_var         2        1      152        1
(PID.TID 0000.0001) bi,bj,prof_num,num_var         2        1      152        2
(PID.TID 0000.0001) bi,bj,prof_num,num_var         2        1      152        3
(PID.TID 0000.0001) bi,bj,prof_num,num_var         2        1      152        4
(PID.TID 0000.0001) bi,bj,prof_num,num_var         2        1      152        5
(PID.TID 0000.0001) bi,bj,prof_num,num_var         2        1      152        6
(PID.TID 0000.0001) buffer readvector         1        8        8      205     4420
(PID.TID 0000.0001) buffer readvector        24     1023       24      205     4420
(PID.TID 0000.0001) buffer readvector      1027     2026     1027      205     4420
(PID.TID 0000.0001) buffer readvector      2031     3030     2031      205     4420
(PID.TID 0000.0001) buffer readvector      3066     4065     3066      205     4420
(PID.TID 0000.0001) buffer readvector      4066     4420     4066      205     4420
(PID.TID 0000.0001) bi,bj,prof_num,num_var         3        1      205        1
(PID.TID 0000.0001) bi,bj,prof_num,num_var         3        1      205        2
(PID.TID 0000.0001) bi,bj,prof_num,num_var         3        1      205        3
(PID.TID 0000.0001) bi,bj,prof_num,num_var         3        1      205        4
(PID.TID 0000.0001) bi,bj,prof_num,num_var         3        1      205        5
(PID.TID 0000.0001) bi,bj,prof_num,num_var         3        1      205        6
(PID.TID 0000.0001) buffer readvector         1        7        7       45     4420
(PID.TID 0000.0001) buffer readvector       150     1149      150       45     4420
(PID.TID 0000.0001) buffer readvector      1233     2232     1233       45     4420
(PID.TID 0000.0001) buffer readvector      2437     3436     2437       45     4420
(PID.TID 0000.0001) buffer readvector      3684     4420     3684       45     4420
(PID.TID 0000.0001) bi,bj,prof_num,num_var         4        1       45        1
(PID.TID 0000.0001) bi,bj,prof_num,num_var         4        1       45        2
(PID.TID 0000.0001) bi,bj,prof_num,num_var         4        1       45        3
(PID.TID 0000.0001) bi,bj,prof_num,num_var         4        1       45        4
(PID.TID 0000.0001) bi,bj,prof_num,num_var         4        1       45        5
(PID.TID 0000.0001) bi,bj,prof_num,num_var         4        1       45        6
(PID.TID 0000.0001) buffer readvector         1        3        3      250     4420
(PID.TID 0000.0001) buffer readvector        12     1011       12      250     4420
(PID.TID 0000.0001) buffer readvector      1031     2030     1031      250     4420
(PID.TID 0000.0001) buffer readvector      2091     3090     2091      250     4420
(PID.TID 0000.0001) buffer readvector      3108     4107     3108      250     4420
(PID.TID 0000.0001) buffer readvector      4121     4420     4121      250     4420
(PID.TID 0000.0001) bi,bj,prof_num,num_var         5        1      250        1
(PID.TID 0000.0001) bi,bj,prof_num,num_var         5        1      250        2
(PID.TID 0000.0001) bi,bj,prof_num,num_var         5        1      250        3
(PID.TID 0000.0001) bi,bj,prof_num,num_var         5        1      250        4
(PID.TID 0000.0001) bi,bj,prof_num,num_var         5        1      250        5
(PID.TID 0000.0001) bi,bj,prof_num,num_var         5        1      250        6
(PID.TID 0000.0001) buffer readvector         1       10       10      192     4420
(PID.TID 0000.0001) buffer readvector        38     1037       38      192     4420
(PID.TID 0000.0001) buffer readvector      1047     2046     1047      192     4420
(PID.TID 0000.0001) buffer readvector      2049     3048     2049      192     4420
(PID.TID 0000.0001) buffer readvector      3104     4103     3104      192     4420
(PID.TID 0000.0001) buffer readvector      4109     4420     4109      192     4420
(PID.TID 0000.0001) bi,bj,prof_num,num_var         6        1      192        1
(PID.TID 0000.0001) bi,bj,prof_num,num_var         6        1      192        2
(PID.TID 0000.0001) bi,bj,prof_num,num_var         6        1      192        3
(PID.TID 0000.0001) bi,bj,prof_num,num_var         6        1      192        4
(PID.TID 0000.0001) bi,bj,prof_num,num_var         6        1      192        5
(PID.TID 0000.0001) bi,bj,prof_num,num_var         6        1      192        6
(PID.TID 0000.0001) buffer readvector         1        4        4      108     4420
(PID.TID 0000.0001) buffer readvector        20     1019       20      108     4420
(PID.TID 0000.0001) buffer readvector      1075     2074     1075      108     4420
(PID.TID 0000.0001) buffer readvector      2143     3142     2143      108     4420
(PID.TID 0000.0001) buffer readvector      3165     4164     3165      108     4420
(PID.TID 0000.0001) buffer readvector      4201     4420     4201      108     4420
(PID.TID 0000.0001) bi,bj,prof_num,num_var         7        1      108        1
(PID.TID 0000.0001) bi,bj,prof_num,num_var         7        1      108        2
(PID.TID 0000.0001) bi,bj,prof_num,num_var         7        1      108        3
(PID.TID 0000.0001) bi,bj,prof_num,num_var         7        1      108        4
(PID.TID 0000.0001) bi,bj,prof_num,num_var         7        1      108        5
(PID.TID 0000.0001) bi,bj,prof_num,num_var         7        1      108        6
(PID.TID 0000.0001) buffer readvector         1       22       22      146     4420
(PID.TID 0000.0001) buffer readvector        53     1052       53      146     4420
(PID.TID 0000.0001) buffer readvector      1080     2079     1080      146     4420
(PID.TID 0000.0001) buffer readvector      2105     3104     2105      146     4420
(PID.TID 0000.0001) buffer readvector      3120     4119     3120      146     4420
(PID.TID 0000.0001) buffer readvector      4122     4420     4122      146     4420
(PID.TID 0000.0001) bi,bj,prof_num,num_var         8        1      146        1
(PID.TID 0000.0001) bi,bj,prof_num,num_var         8        1      146        2
(PID.TID 0000.0001) bi,bj,prof_num,num_var         8        1      146        3
(PID.TID 0000.0001) bi,bj,prof_num,num_var         8        1      146        4
(PID.TID 0000.0001) bi,bj,prof_num,num_var         8        1      146        5
(PID.TID 0000.0001) bi,bj,prof_num,num_var         8        1      146        6
(PID.TID 0000.0001) buffer readvector         1       93       93       55     4420
(PID.TID 0000.0001) buffer readvector       123     1122      123       55     4420
(PID.TID 0000.0001) buffer readvector      1148     2147     1148       55     4420
(PID.TID 0000.0001) buffer readvector      2174     3173     2174       55     4420
(PID.TID 0000.0001) buffer readvector      3177     4176     3177       55     4420
(PID.TID 0000.0001) buffer readvector      4244     4420     4244       55     4420
(PID.TID 0000.0001) bi,bj,prof_num,num_var         9        1       55        1
(PID.TID 0000.0001) bi,bj,prof_num,num_var         9        1       55        2
(PID.TID 0000.0001) bi,bj,prof_num,num_var         9        1       55        3
(PID.TID 0000.0001) bi,bj,prof_num,num_var         9        1       55        4
(PID.TID 0000.0001) bi,bj,prof_num,num_var         9        1       55        5
(PID.TID 0000.0001) bi,bj,prof_num,num_var         9        1       55        6
(PID.TID 0000.0001) buffer readvector         1       52       52      111     4420
(PID.TID 0000.0001) buffer readvector        90     1089       90      111     4420
(PID.TID 0000.0001) buffer readvector      1099     2098     1099      111     4420
(PID.TID 0000.0001) buffer readvector      2122     3121     2122      111     4420
(PID.TID 0000.0001) buffer readvector      3167     4166     3167      111     4420
(PID.TID 0000.0001) buffer readvector      4214     4420     4214      111     4420
(PID.TID 0000.0001) bi,bj,prof_num,num_var        10        1      111        1
(PID.TID 0000.0001) bi,bj,prof_num,num_var        10        1      111        2
(PID.TID 0000.0001) bi,bj,prof_num,num_var        10        1      111        3
(PID.TID 0000.0001) bi,bj,prof_num,num_var        10        1      111        4
(PID.TID 0000.0001) bi,bj,prof_num,num_var        10        1      111        5
(PID.TID 0000.0001) bi,bj,prof_num,num_var        10        1      111        6
(PID.TID 0000.0001) buffer readvector         1       43       43      185     4420
(PID.TID 0000.0001) buffer readvector        48     1047       48      185     4420
(PID.TID 0000.0001) buffer readvector      1062     2061     1062      185     4420
(PID.TID 0000.0001) buffer readvector      2114     3113     2114      185     4420
(PID.TID 0000.0001) buffer readvector      3126     4125     3126      185     4420
(PID.TID 0000.0001) buffer readvector      4163     4420     4163      185     4420
(PID.TID 0000.0001) bi,bj,prof_num,num_var        11        1      185        1
(PID.TID 0000.0001) bi,bj,prof_num,num_var        11        1      185        2
(PID.TID 0000.0001) bi,bj,prof_num,num_var        11        1      185        3
(PID.TID 0000.0001) bi,bj,prof_num,num_var        11        1      185        4
(PID.TID 0000.0001) bi,bj,prof_num,num_var        11        1      185        5
(PID.TID 0000.0001) bi,bj,prof_num,num_var        11        1      185        6
(PID.TID 0000.0001) buffer readvector         1       23       23      152     4420
(PID.TID 0000.0001) buffer readvector        25     1024       25      152     4420
(PID.TID 0000.0001) buffer readvector      1064     2063     1064      152     4420
(PID.TID 0000.0001) buffer readvector      2093     3092     2093      152     4420
(PID.TID 0000.0001) buffer readvector      3105     4104     3105      152     4420
(PID.TID 0000.0001) buffer readvector      4127     4420     4127      152     4420
(PID.TID 0000.0001) bi,bj,prof_num,num_var        12        1      152        1
(PID.TID 0000.0001) bi,bj,prof_num,num_var        12        1      152        2
(PID.TID 0000.0001) bi,bj,prof_num,num_var        12        1      152        3
(PID.TID 0000.0001) bi,bj,prof_num,num_var        12        1      152        4
(PID.TID 0000.0001) bi,bj,prof_num,num_var        12        1      152        5
(PID.TID 0000.0001) bi,bj,prof_num,num_var        12        1      152        6
(PID.TID 0000.0001) buffer readvector         1        1        1      253     4420
(PID.TID 0000.0001) buffer readvector         2     1001        2      253     4420
(PID.TID 0000.0001) buffer readvector      1016     2015     1016      253     4420
(PID.TID 0000.0001) buffer readvector      2028     3027     2028      253     4420
(PID.TID 0000.0001) buffer readvector      3038     4037     3038      253     4420
(PID.TID 0000.0001) buffer readvector      4045     4420     4045      253     4420
(PID.TID 0000.0001) bi,bj,prof_num,num_var        13        1      253        1
(PID.TID 0000.0001) bi,bj,prof_num,num_var        13        1      253        2
(PID.TID 0000.0001) bi,bj,prof_num,num_var        13        1      253        3
(PID.TID 0000.0001) bi,bj,prof_num,num_var        13        1      253        4
(PID.TID 0000.0001) bi,bj,prof_num,num_var        13        1      253        5
(PID.TID 0000.0001) bi,bj,prof_num,num_var        13        1      253        6
(PID.TID 0000.0001) buffer readvector         1       65       65      187     4420
(PID.TID 0000.0001) buffer readvector        84     1083       84      187     4420
(PID.TID 0000.0001) buffer readvector      1088     2087     1088      187     4420
(PID.TID 0000.0001) buffer readvector      2090     3089     2090      187     4420
(PID.TID 0000.0001) buffer readvector      3099     4098     3099      187     4420
(PID.TID 0000.0001) buffer readvector      4104     4420     4104      187     4420
(PID.TID 0000.0001) bi,bj,prof_num,num_var        14        1      187        1
(PID.TID 0000.0001) bi,bj,prof_num,num_var        14        1      187        2
(PID.TID 0000.0001) bi,bj,prof_num,num_var        14        1      187        3
(PID.TID 0000.0001) bi,bj,prof_num,num_var        14        1      187        4
(PID.TID 0000.0001) bi,bj,prof_num,num_var        14        1      187        5
(PID.TID 0000.0001) bi,bj,prof_num,num_var        14        1      187        6
(PID.TID 0000.0001) buffer readvector         1       27       27      256     4420
(PID.TID 0000.0001) buffer readvector        28     1027       28      256     4420
(PID.TID 0000.0001) buffer readvector      1038     2037     1038      256     4420
(PID.TID 0000.0001) buffer readvector      2047     3046     2047      256     4420
(PID.TID 0000.0001) buffer readvector      3057     4056     3057      256     4420
(PID.TID 0000.0001) buffer readvector      4059     4420     4059      256     4420
(PID.TID 0000.0001) bi,bj,prof_num,num_var        15        1      256        1
(PID.TID 0000.0001) bi,bj,prof_num,num_var        15        1      256        2
(PID.TID 0000.0001) bi,bj,prof_num,num_var        15        1      256        3
(PID.TID 0000.0001) bi,bj,prof_num,num_var        15        1      256        4
(PID.TID 0000.0001) bi,bj,prof_num,num_var        15        1      256        5
(PID.TID 0000.0001) bi,bj,prof_num,num_var        15        1      256        6
(PID.TID 0000.0001) buffer readvector         1        9        9      257     4420
(PID.TID 0000.0001) buffer readvector        88     1087       88      257     4420
(PID.TID 0000.0001) buffer readvector      1121     2120     1121      257     4420
(PID.TID 0000.0001) buffer readvector      2133     3132     2133      257     4420
(PID.TID 0000.0001) buffer readvector      3155     4154     3155      257     4420
(PID.TID 0000.0001) buffer readvector      4199     4420     4199      257     4420
(PID.TID 0000.0001) bi,bj,prof_num,num_var        16        1      257        1
(PID.TID 0000.0001) bi,bj,prof_num,num_var        16        1      257        2
(PID.TID 0000.0001) bi,bj,prof_num,num_var        16        1      257        3
(PID.TID 0000.0001) bi,bj,prof_num,num_var        16        1      257        4
(PID.TID 0000.0001) bi,bj,prof_num,num_var        16        1      257        5
(PID.TID 0000.0001) bi,bj,prof_num,num_var        16        1      257        6
(PID.TID 0000.0001) buffer readvector         1       15       15      188     4420
(PID.TID 0000.0001) buffer readvector        54     1053       54      188     4420
(PID.TID 0000.0001) buffer readvector      1092     2091     1092      188     4420
(PID.TID 0000.0001) buffer readvector      2103     3102     2103      188     4420
(PID.TID 0000.0001) buffer readvector      3209     4208     3209      188     4420
(PID.TID 0000.0001) buffer readvector      4242     4420     4242      188     4420
(PID.TID 0000.0001) bi,bj,prof_num,num_var        17        1      188        1
(PID.TID 0000.0001) bi,bj,prof_num,num_var        17        1      188        2
(PID.TID 0000.0001) bi,bj,prof_num,num_var        17        1      188        3
(PID.TID 0000.0001) bi,bj,prof_num,num_var        17        1      188        4
(PID.TID 0000.0001) bi,bj,prof_num,num_var        17        1      188        5
(PID.TID 0000.0001) bi,bj,prof_num,num_var        17        1      188        6
(PID.TID 0000.0001) buffer readvector         1        6        6      256     4420
(PID.TID 0000.0001) buffer readvector        21     1020       21      256     4420
(PID.TID 0000.0001) buffer readvector      1034     2033     1034      256     4420
(PID.TID 0000.0001) buffer readvector      2040     3039     2040      256     4420
(PID.TID 0000.0001) buffer readvector      3055     4054     3055      256     4420
(PID.TID 0000.0001) buffer readvector      4088     4420     4088      256     4420
(PID.TID 0000.0001) bi,bj,prof_num,num_var        18        1      256        1
(PID.TID 0000.0001) bi,bj,prof_num,num_var        18        1      256        2
(PID.TID 0000.0001) bi,bj,prof_num,num_var        18        1      256        3
(PID.TID 0000.0001) bi,bj,prof_num,num_var        18        1      256        4
(PID.TID 0000.0001) bi,bj,prof_num,num_var        18        1      256        5
(PID.TID 0000.0001) bi,bj,prof_num,num_var        18        1      256        6
(PID.TID 0000.0001) buffer readvector         1       49       49      194     4420
(PID.TID 0000.0001) buffer readvector        63     1062       63      194     4420
(PID.TID 0000.0001) buffer readvector      1091     2090     1091      194     4420
(PID.TID 0000.0001) buffer readvector      2129     3128     2129      194     4420
(PID.TID 0000.0001) buffer readvector      3207     4206     3207      194     4420
(PID.TID 0000.0001) buffer readvector      4216     4420     4216      194     4420
(PID.TID 0000.0001) bi,bj,prof_num,num_var        19        1      194        1
(PID.TID 0000.0001) bi,bj,prof_num,num_var        19        1      194        2
(PID.TID 0000.0001) bi,bj,prof_num,num_var        19        1      194        3
(PID.TID 0000.0001) bi,bj,prof_num,num_var        19        1      194        4
(PID.TID 0000.0001) bi,bj,prof_num,num_var        19        1      194        5
(PID.TID 0000.0001) bi,bj,prof_num,num_var        19        1      194        6
(PID.TID 0000.0001) buffer readvector         1      104      104      106     4420
(PID.TID 0000.0001) buffer readvector       111     1110      111      106     4420
(PID.TID 0000.0001) buffer readvector      1166     2165     1166      106     4420
(PID.TID 0000.0001) buffer readvector      2167     3166     2167      106     4420
(PID.TID 0000.0001) buffer readvector      3184     4183     3184      106     4420
(PID.TID 0000.0001) buffer readvector      4269     4420     4269      106     4420
(PID.TID 0000.0001) bi,bj,prof_num,num_var        20        1      106        1
(PID.TID 0000.0001) bi,bj,prof_num,num_var        20        1      106        2
(PID.TID 0000.0001) bi,bj,prof_num,num_var        20        1      106        3
(PID.TID 0000.0001) bi,bj,prof_num,num_var        20        1      106        4
(PID.TID 0000.0001) bi,bj,prof_num,num_var        20        1      106        5
(PID.TID 0000.0001) bi,bj,prof_num,num_var        20        1      106        6
(PID.TID 0000.0001) buffer readvector         1       29       29      235     4420
(PID.TID 0000.0001) buffer readvector        55     1054       55      235     4420
(PID.TID 0000.0001) buffer readvector      1073     2072     1073      235     4420
(PID.TID 0000.0001) buffer readvector      2073     3072     2073      235     4420
(PID.TID 0000.0001) buffer readvector      3094     4093     3094      235     4420
(PID.TID 0000.0001) buffer readvector      4112     4420     4112      235     4420
(PID.TID 0000.0001) bi,bj,prof_num,num_var        21        1      235        1
(PID.TID 0000.0001) bi,bj,prof_num,num_var        21        1      235        2
(PID.TID 0000.0001) bi,bj,prof_num,num_var        21        1      235        3
(PID.TID 0000.0001) bi,bj,prof_num,num_var        21        1      235        4
(PID.TID 0000.0001) bi,bj,prof_num,num_var        21        1      235        5
(PID.TID 0000.0001) bi,bj,prof_num,num_var        21        1      235        6
(PID.TID 0000.0001) buffer readvector         1        5        5      212     4420
(PID.TID 0000.0001) buffer readvector        50     1049       50      212     4420
(PID.TID 0000.0001) buffer readvector      1051     2050     1051      212     4420
(PID.TID 0000.0001) buffer readvector      2067     3066     2067      212     4420
(PID.TID 0000.0001) buffer readvector      3084     4083     3084      212     4420
(PID.TID 0000.0001) buffer readvector      4087     4420     4087      212     4420
(PID.TID 0000.0001) bi,bj,prof_num,num_var        22        1      212        1
(PID.TID 0000.0001) bi,bj,prof_num,num_var        22        1      212        2
(PID.TID 0000.0001) bi,bj,prof_num,num_var        22        1      212        3
(PID.TID 0000.0001) bi,bj,prof_num,num_var        22        1      212        4
(PID.TID 0000.0001) bi,bj,prof_num,num_var        22        1      212        5
(PID.TID 0000.0001) bi,bj,prof_num,num_var        22        1      212        6
(PID.TID 0000.0001) buffer readvector         1       40       40      225     4420
(PID.TID 0000.0001) buffer readvector       119     1118      119      225     4420
(PID.TID 0000.0001) buffer readvector      1126     2125     1126      225     4420
(PID.TID 0000.0001) buffer readvector      2134     3133     2134      225     4420
(PID.TID 0000.0001) buffer readvector      3194     4193     3194      225     4420
(PID.TID 0000.0001) buffer readvector      4205     4420     4205      225     4420
(PID.TID 0000.0001) bi,bj,prof_num,num_var        23        1      225        1
(PID.TID 0000.0001) bi,bj,prof_num,num_var        23        1      225        2
(PID.TID 0000.0001) bi,bj,prof_num,num_var        23        1      225        3
(PID.TID 0000.0001) bi,bj,prof_num,num_var        23        1      225        4
(PID.TID 0000.0001) bi,bj,prof_num,num_var        23        1      225        5
(PID.TID 0000.0001) bi,bj,prof_num,num_var        23        1      225        6
(PID.TID 0000.0001) buffer readvector         1       13       13      213     4420
(PID.TID 0000.0001) buffer readvector        17     1016       17      213     4420
(PID.TID 0000.0001) buffer readvector      1022     2021     1022      213     4420
(PID.TID 0000.0001) buffer readvector      2022     3021     2022      213     4420
(PID.TID 0000.0001) buffer readvector      3032     4031     3032      213     4420
(PID.TID 0000.0001) buffer readvector      4040     4420     4040      213     4420
(PID.TID 0000.0001) bi,bj,prof_num,num_var        24        1      213        1
(PID.TID 0000.0001) bi,bj,prof_num,num_var        24        1      213        2
(PID.TID 0000.0001) bi,bj,prof_num,num_var        24        1      213        3
(PID.TID 0000.0001) bi,bj,prof_num,num_var        24        1      213        4
(PID.TID 0000.0001) bi,bj,prof_num,num_var        24        1      213        5
(PID.TID 0000.0001) bi,bj,prof_num,num_var        24        1      213        6
 --> f_ice     = 0.000000000000000D+00
 --> f_smrarea = 0.000000000000000D+00
 --> f_smrarea = 0.000000000000000D+00
 --> f_smrarea = 0.000000000000000D+00
 --> f_temp    = 0.365003549852883D+05
 --> f_salt    = 0.247660882163742D+05
 --> f_temp0   = 0.999999955296517D-04
 --> f_salt0   = 0.000000000000000D+00
 --> f_temp0smoo = 0.000000000000000D+00
 --> f_salt0smoo = 0.000000000000000D+00
 --> f_etan0   = 0.000000000000000D+00
 --> f_uvel0   = 0.000000000000000D+00
 --> f_vvel0   = 0.000000000000000D+00
 --> f_sst     = 0.000000000000000D+00
 --> f_tmi     = 0.000000000000000D+00
 --> f_sss     = 0.000000000000000D+00
 --> f_bp      = 0.000000000000000D+00
 --> f_ies      = 0.000000000000000D+00
 --> f_ssh       = 0.000000000000000D+00
 --> f_tp        = 0.000000000000000D+00
 --> f_ers       = 0.000000000000000D+00
 --> f_gfo       = 0.000000000000000D+00
 --> f_tauu    = 0.000000000000000D+00
 --> f_tauum   = 0.000000000000000D+00
 --> f_tauusmoo = 0.000000000000000D+00
 --> f_tauv    = 0.000000000000000D+00
 --> f_tauvm   = 0.000000000000000D+00
 --> f_tauvsmoo = 0.000000000000000D+00
 --> f_hflux   = 0.000000000000000D+00
 --> f_hfluxmm = 0.000000000000000D+00
 --> f_hfluxsmoo = 0.000000000000000D+00
 --> f_sflux   = 0.000000000000000D+00
 --> f_sfluxmm = 0.000000000000000D+00
 --> f_sfluxsmoo = 0.000000000000000D+00
 --> f_uwind     = 0.000000000000000D+00
 --> f_vwind     = 0.000000000000000D+00
 --> f_atemp     = 0.000000000000000D+00
 --> f_aqh     = 0.000000000000000D+00
 --> f_precip  = 0.000000000000000D+00
 --> f_swflux  = 0.000000000000000D+00
 --> f_swdown  = 0.000000000000000D+00
 --> f_uwindm     = 0.000000000000000D+00
 --> f_vwindm     = 0.000000000000000D+00
 --> f_atempm     = 0.000000000000000D+00
 --> f_aqhm     = 0.000000000000000D+00
 --> f_precipm  = 0.000000000000000D+00
 --> f_swfluxm  = 0.000000000000000D+00
 --> f_swdownm  = 0.000000000000000D+00
 --> f_uwindsmoo     = 0.000000000000000D+00
 --> f_vwindsmoo     = 0.000000000000000D+00
 --> f_atempsmoo     = 0.000000000000000D+00
 --> f_aqhsmoo     = 0.000000000000000D+00
 --> f_precipsmoo  = 0.000000000000000D+00
 --> f_swfluxsmoo  = 0.000000000000000D+00
 --> f_swdownsmoo  = 0.000000000000000D+00
 --> f_atl     = 0.000000000000000D+00
 --> f_ctdt    = 0.000000000000000D+00
 --> f_ctds    = 0.000000000000000D+00
 --> f_ctdtclim= 0.000000000000000D+00
 --> f_ctdsclim= 0.000000000000000D+00
 --> f_xbt     = 0.000000000000000D+00
 --> f_argot   = 0.000000000000000D+00
 --> f_argos   = 0.000000000000000D+00
 --> f_drifter   = 0.000000000000000D+00
 --> f_tdrift  = 0.000000000000000D+00
 --> f_sdrift  = 0.000000000000000D+00
 --> f_wdrift  = 0.000000000000000D+00
 --> f_scatx   = 0.000000000000000D+00
 --> f_scaty   = 0.000000000000000D+00
 --> f_scatxm  = 0.000000000000000D+00
 --> f_scatym  = 0.000000000000000D+00
 --> f_obcsn   = 0.000000000000000D+00
 --> f_obcss   = 0.000000000000000D+00
 --> f_obcsw   = 0.000000000000000D+00
 --> f_obcse   = 0.000000000000000D+00
 --> f_ageos   = 0.000000000000000D+00
 --> f_curmtr  = 0.000000000000000D+00
 --> f_kapgm   = 0.000000000000000D+00
 --> f_kapredi   = 0.000000000000000D+00
 --> f_diffkr  = 0.000000000000000D+00
 --> f_eddytau = 0.000000000000000D+00
 --> f_bottomdrag = 0.000000000000000D+00
 --> f_profiles = 0.134974159737810D+04 1 1
 --> f_profiles = 0.229260626684679D+05 1 2
 --> f_profiles = 0.000000000000000D+00 1 3
 --> f_profiles = 0.000000000000000D+00 1 4
 --> f_profiles = 0.000000000000000D+00 1 5
 --> f_profiles = 0.000000000000000D+00 1 6
 --> f_hfluxmm2           = 0.000000000000000D+00
 --> f_sfluxmm2           = 0.000000000000000D+00
 --> f_transp             = 0.000000000000000D+00
 --> objf_hmean           = 0.000000000000000D+00
 --> fc               = 0.000000000000000D+00
  early fc =  0.000000000000000D+00
 --> objf_test(bi,bj)   =  0.000000000000000D+00
 --> objf_tracer(bi,bj) =  0.000000000000000D+00
 --> objf_atl(bi,bj)    =  0.000000000000000D+00
 --> objf_test(bi,bj)   =  0.000000000000000D+00
 --> objf_tracer(bi,bj) =  0.000000000000000D+00
 --> objf_atl(bi,bj)    =  0.000000000000000D+00
 --> objf_test(bi,bj)   =  0.000000000000000D+00
 --> objf_tracer(bi,bj) =  0.000000000000000D+00
 --> objf_atl(bi,bj)    =  0.000000000000000D+00
 --> objf_test(bi,bj)   =  0.000000000000000D+00
 --> objf_tracer(bi,bj) =  0.000000000000000D+00
 --> objf_atl(bi,bj)    =  0.000000000000000D+00
 --> objf_test(bi,bj)   =  0.000000000000000D+00
 --> objf_tracer(bi,bj) =  0.000000000000000D+00
 --> objf_atl(bi,bj)    =  0.000000000000000D+00
 --> objf_test(bi,bj)   =  0.000000000000000D+00
 --> objf_tracer(bi,bj) =  0.000000000000000D+00
 --> objf_atl(bi,bj)    =  0.000000000000000D+00
 --> objf_test(bi,bj)   =  0.000000000000000D+00
 --> objf_tracer(bi,bj) =  0.000000000000000D+00
 --> objf_atl(bi,bj)    =  0.000000000000000D+00
 --> objf_test(bi,bj)   =  0.000000000000000D+00
 --> objf_tracer(bi,bj) =  0.000000000000000D+00
 --> objf_atl(bi,bj)    =  0.000000000000000D+00
 --> objf_test(bi,bj)   =  0.000000000000000D+00
 --> objf_tracer(bi,bj) =  0.000000000000000D+00
 --> objf_atl(bi,bj)    =  0.000000000000000D+00
 --> objf_test(bi,bj)   =  0.000000000000000D+00
 --> objf_tracer(bi,bj) =  0.000000000000000D+00
 --> objf_atl(bi,bj)    =  0.000000000000000D+00
 --> objf_test(bi,bj)   =  0.000000000000000D+00
 --> objf_tracer(bi,bj) =  0.000000000000000D+00
 --> objf_atl(bi,bj)    =  0.000000000000000D+00
 --> objf_test(bi,bj)   =  0.000000000000000D+00
 --> objf_tracer(bi,bj) =  0.000000000000000D+00
 --> objf_atl(bi,bj)    =  0.000000000000000D+00
 --> objf_test(bi,bj)   =  0.000000000000000D+00
 --> objf_tracer(bi,bj) =  0.000000000000000D+00
 --> objf_atl(bi,bj)    =  0.000000000000000D+00
 --> objf_test(bi,bj)   =  0.000000000000000D+00
 --> objf_tracer(bi,bj) =  0.000000000000000D+00
 --> objf_atl(bi,bj)    =  0.000000000000000D+00
 --> objf_test(bi,bj)   =  0.000000000000000D+00
 --> objf_tracer(bi,bj) =  0.000000000000000D+00
 --> objf_atl(bi,bj)    =  0.000000000000000D+00
 --> objf_test(bi,bj)   =  0.000000000000000D+00
 --> objf_tracer(bi,bj) =  0.000000000000000D+00
 --> objf_atl(bi,bj)    =  0.000000000000000D+00
 --> objf_test(bi,bj)   =  0.000000000000000D+00
 --> objf_tracer(bi,bj) =  0.000000000000000D+00
 --> objf_atl(bi,bj)    =  0.000000000000000D+00
 --> objf_test(bi,bj)   =  0.000000000000000D+00
 --> objf_tracer(bi,bj) =  0.000000000000000D+00
 --> objf_atl(bi,bj)    =  0.000000000000000D+00
 --> objf_test(bi,bj)   =  0.000000000000000D+00
 --> objf_tracer(bi,bj) =  0.000000000000000D+00
 --> objf_atl(bi,bj)    =  0.000000000000000D+00
 --> objf_test(bi,bj)   =  0.000000000000000D+00
 --> objf_tracer(bi,bj) =  0.000000000000000D+00
 --> objf_atl(bi,bj)    =  0.000000000000000D+00
 --> objf_test(bi,bj)   =  0.000000000000000D+00
 --> objf_tracer(bi,bj) =  0.000000000000000D+00
 --> objf_atl(bi,bj)    =  0.000000000000000D+00
 --> objf_test(bi,bj)   =  0.000000000000000D+00
 --> objf_tracer(bi,bj) =  0.000000000000000D+00
 --> objf_atl(bi,bj)    =  0.000000000000000D+00
 --> objf_test(bi,bj)   =  0.000000000000000D+00
 --> objf_tracer(bi,bj) =  0.000000000000000D+00
 --> objf_atl(bi,bj)    =  0.000000000000000D+00
 --> objf_test(bi,bj)   =  0.000000000000000D+00
 --> objf_tracer(bi,bj) =  0.000000000000000D+00
 --> objf_atl(bi,bj)    =  0.000000000000000D+00
  local fc =  0.242758043658460D+05
 global fc =  0.242758043658460D+05
(PID.TID 0000.0001) grdchk perturb(+)fc: fcpertplus  =  2.42758043658460E+04
(PID.TID 0000.0001) Start initial hydrostatic pressure computation
(PID.TID 0000.0001) Pressure is predetermined for buoyancyRelation OCEANIC
(PID.TID 0000.0001) 
(PID.TID 0000.0001) // =======================================================
(PID.TID 0000.0001) // Model current state
(PID.TID 0000.0001) // =======================================================
(PID.TID 0000.0001) 
(PID.TID 0000.0001) SOLVE_FOR_PRESSURE: putPmEinXvector =    F
 cg2d: Sum(rhs),rhsMax =   7.73551084252219E-01  6.80494402306246E+00
 cg2d: Sum(rhs),rhsMax =   1.52697382498799E+00  8.23373653118094E+00
 cg2d: Sum(rhs),rhsMax =   2.27601811869340E+00  7.98039283368885E+00
 cg2d: Sum(rhs),rhsMax =   3.02165677063277E+00  7.75066850209272E+00
 cg2d: Sum(rhs),rhsMax =   3.74608650866219E+00  7.66158157131340E+00
 cg2d: Sum(rhs),rhsMax =   4.45761525618963E+00  7.62173353199189E+00
 cg2d: Sum(rhs),rhsMax =   5.15911134678609E+00  7.59748648814444E+00
 cg2d: Sum(rhs),rhsMax =   5.85339202302282E+00  7.57707686886579E+00
(PID.TID 0000.0001) Did not write pickup because writePickupAtEnd = FALSE
(PID.TID 0000.0001) ph-cost call cost_theta0
(PID.TID 0000.0001) ph-cost call cost_salt0
(PID.TID 0000.0001) ph-cost call cost_theta
(PID.TID 0000.0001) ph-cost call cost_salt
(PID.TID 0000.0001) buffer readvector         1       11       11      237     4420
(PID.TID 0000.0001) buffer readvector        19     1018       19      237     4420
(PID.TID 0000.0001) buffer readvector      1036     2035     1036      237     4420
(PID.TID 0000.0001) buffer readvector      2037     3036     2037      237     4420
(PID.TID 0000.0001) buffer readvector      3045     4044     3045      237     4420
(PID.TID 0000.0001) buffer readvector      4050     4420     4050      237     4420
(PID.TID 0000.0001) bi,bj,prof_num,num_var         1        1      237        1
(PID.TID 0000.0001) bi,bj,prof_num,num_var         1        1      237        2
(PID.TID 0000.0001) bi,bj,prof_num,num_var         1        1      237        3
(PID.TID 0000.0001) bi,bj,prof_num,num_var         1        1      237        4
(PID.TID 0000.0001) bi,bj,prof_num,num_var         1        1      237        5
(PID.TID 0000.0001) bi,bj,prof_num,num_var         1        1      237        6
(PID.TID 0000.0001) buffer readvector         1       34       34      152     4420
(PID.TID 0000.0001) buffer readvector        42     1041       42      152     4420
(PID.TID 0000.0001) buffer readvector      1095     2094     1095      152     4420
(PID.TID 0000.0001) buffer readvector      2111     3110     2111      152     4420
(PID.TID 0000.0001) buffer readvector      3148     4147     3148      152     4420
(PID.TID 0000.0001) buffer readvector      4162     4420     4162      152     4420
(PID.TID 0000.0001) bi,bj,prof_num,num_var         2        1      152        1
(PID.TID 0000.0001) bi,bj,prof_num,num_var         2        1      152        2
(PID.TID 0000.0001) bi,bj,prof_num,num_var         2        1      152        3
(PID.TID 0000.0001) bi,bj,prof_num,num_var         2        1      152        4
(PID.TID 0000.0001) bi,bj,prof_num,num_var         2        1      152        5
(PID.TID 0000.0001) bi,bj,prof_num,num_var         2        1      152        6
(PID.TID 0000.0001) buffer readvector         1        8        8      205     4420
(PID.TID 0000.0001) buffer readvector        24     1023       24      205     4420
(PID.TID 0000.0001) buffer readvector      1027     2026     1027      205     4420
(PID.TID 0000.0001) buffer readvector      2031     3030     2031      205     4420
(PID.TID 0000.0001) buffer readvector      3066     4065     3066      205     4420
(PID.TID 0000.0001) buffer readvector      4066     4420     4066      205     4420
(PID.TID 0000.0001) bi,bj,prof_num,num_var         3        1      205        1
(PID.TID 0000.0001) bi,bj,prof_num,num_var         3        1      205        2
(PID.TID 0000.0001) bi,bj,prof_num,num_var         3        1      205        3
(PID.TID 0000.0001) bi,bj,prof_num,num_var         3        1      205        4
(PID.TID 0000.0001) bi,bj,prof_num,num_var         3        1      205        5
(PID.TID 0000.0001) bi,bj,prof_num,num_var         3        1      205        6
(PID.TID 0000.0001) buffer readvector         1        7        7       45     4420
(PID.TID 0000.0001) buffer readvector       150     1149      150       45     4420
(PID.TID 0000.0001) buffer readvector      1233     2232     1233       45     4420
(PID.TID 0000.0001) buffer readvector      2437     3436     2437       45     4420
(PID.TID 0000.0001) buffer readvector      3684     4420     3684       45     4420
(PID.TID 0000.0001) bi,bj,prof_num,num_var         4        1       45        1
(PID.TID 0000.0001) bi,bj,prof_num,num_var         4        1       45        2
(PID.TID 0000.0001) bi,bj,prof_num,num_var         4        1       45        3
(PID.TID 0000.0001) bi,bj,prof_num,num_var         4        1       45        4
(PID.TID 0000.0001) bi,bj,prof_num,num_var         4        1       45        5
(PID.TID 0000.0001) bi,bj,prof_num,num_var         4        1       45        6
(PID.TID 0000.0001) buffer readvector         1        3        3      250     4420
(PID.TID 0000.0001) buffer readvector        12     1011       12      250     4420
(PID.TID 0000.0001) buffer readvector      1031     2030     1031      250     4420
(PID.TID 0000.0001) buffer readvector      2091     3090     2091      250     4420
(PID.TID 0000.0001) buffer readvector      3108     4107     3108      250     4420
(PID.TID 0000.0001) buffer readvector      4121     4420     4121      250     4420
(PID.TID 0000.0001) bi,bj,prof_num,num_var         5        1      250        1
(PID.TID 0000.0001) bi,bj,prof_num,num_var         5        1      250        2
(PID.TID 0000.0001) bi,bj,prof_num,num_var         5        1      250        3
(PID.TID 0000.0001) bi,bj,prof_num,num_var         5        1      250        4
(PID.TID 0000.0001) bi,bj,prof_num,num_var         5        1      250        5
(PID.TID 0000.0001) bi,bj,prof_num,num_var         5        1      250        6
(PID.TID 0000.0001) buffer readvector         1       10       10      192     4420
(PID.TID 0000.0001) buffer readvector        38     1037       38      192     4420
(PID.TID 0000.0001) buffer readvector      1047     2046     1047      192     4420
(PID.TID 0000.0001) buffer readvector      2049     3048     2049      192     4420
(PID.TID 0000.0001) buffer readvector      3104     4103     3104      192     4420
(PID.TID 0000.0001) buffer readvector      4109     4420     4109      192     4420
(PID.TID 0000.0001) bi,bj,prof_num,num_var         6        1      192        1
(PID.TID 0000.0001) bi,bj,prof_num,num_var         6        1      192        2
(PID.TID 0000.0001) bi,bj,prof_num,num_var         6        1      192        3
(PID.TID 0000.0001) bi,bj,prof_num,num_var         6        1      192        4
(PID.TID 0000.0001) bi,bj,prof_num,num_var         6        1      192        5
(PID.TID 0000.0001) bi,bj,prof_num,num_var         6        1      192        6
(PID.TID 0000.0001) buffer readvector         1        4        4      108     4420
(PID.TID 0000.0001) buffer readvector        20     1019       20      108     4420
(PID.TID 0000.0001) buffer readvector      1075     2074     1075      108     4420
(PID.TID 0000.0001) buffer readvector      2143     3142     2143      108     4420
(PID.TID 0000.0001) buffer readvector      3165     4164     3165      108     4420
(PID.TID 0000.0001) buffer readvector      4201     4420     4201      108     4420
(PID.TID 0000.0001) bi,bj,prof_num,num_var         7        1      108        1
(PID.TID 0000.0001) bi,bj,prof_num,num_var         7        1      108        2
(PID.TID 0000.0001) bi,bj,prof_num,num_var         7        1      108        3
(PID.TID 0000.0001) bi,bj,prof_num,num_var         7        1      108        4
(PID.TID 0000.0001) bi,bj,prof_num,num_var         7        1      108        5
(PID.TID 0000.0001) bi,bj,prof_num,num_var         7        1      108        6
(PID.TID 0000.0001) buffer readvector         1       22       22      146     4420
(PID.TID 0000.0001) buffer readvector        53     1052       53      146     4420
(PID.TID 0000.0001) buffer readvector      1080     2079     1080      146     4420
(PID.TID 0000.0001) buffer readvector      2105     3104     2105      146     4420
(PID.TID 0000.0001) buffer readvector      3120     4119     3120      146     4420
(PID.TID 0000.0001) buffer readvector      4122     4420     4122      146     4420
(PID.TID 0000.0001) bi,bj,prof_num,num_var         8        1      146        1
(PID.TID 0000.0001) bi,bj,prof_num,num_var         8        1      146        2
(PID.TID 0000.0001) bi,bj,prof_num,num_var         8        1      146        3
(PID.TID 0000.0001) bi,bj,prof_num,num_var         8        1      146        4
(PID.TID 0000.0001) bi,bj,prof_num,num_var         8        1      146        5
(PID.TID 0000.0001) bi,bj,prof_num,num_var         8        1      146        6
(PID.TID 0000.0001) buffer readvector         1       93       93       55     4420
(PID.TID 0000.0001) buffer readvector       123     1122      123       55     4420
(PID.TID 0000.0001) buffer readvector      1148     2147     1148       55     4420
(PID.TID 0000.0001) buffer readvector      2174     3173     2174       55     4420
(PID.TID 0000.0001) buffer readvector      3177     4176     3177       55     4420
(PID.TID 0000.0001) buffer readvector      4244     4420     4244       55     4420
(PID.TID 0000.0001) bi,bj,prof_num,num_var         9        1       55        1
(PID.TID 0000.0001) bi,bj,prof_num,num_var         9        1       55        2
(PID.TID 0000.0001) bi,bj,prof_num,num_var         9        1       55        3
(PID.TID 0000.0001) bi,bj,prof_num,num_var         9        1       55        4
(PID.TID 0000.0001) bi,bj,prof_num,num_var         9        1       55        5
(PID.TID 0000.0001) bi,bj,prof_num,num_var         9        1       55        6
(PID.TID 0000.0001) buffer readvector         1       52       52      111     4420
(PID.TID 0000.0001) buffer readvector        90     1089       90      111     4420
(PID.TID 0000.0001) buffer readvector      1099     2098     1099      111     4420
(PID.TID 0000.0001) buffer readvector      2122     3121     2122      111     4420
(PID.TID 0000.0001) buffer readvector      3167     4166     3167      111     4420
(PID.TID 0000.0001) buffer readvector      4214     4420     4214      111     4420
(PID.TID 0000.0001) bi,bj,prof_num,num_var        10        1      111        1
(PID.TID 0000.0001) bi,bj,prof_num,num_var        10        1      111        2
(PID.TID 0000.0001) bi,bj,prof_num,num_var        10        1      111        3
(PID.TID 0000.0001) bi,bj,prof_num,num_var        10        1      111        4
(PID.TID 0000.0001) bi,bj,prof_num,num_var        10        1      111        5
(PID.TID 0000.0001) bi,bj,prof_num,num_var        10        1      111        6
(PID.TID 0000.0001) buffer readvector         1       43       43      185     4420
(PID.TID 0000.0001) buffer readvector        48     1047       48      185     4420
(PID.TID 0000.0001) buffer readvector      1062     2061     1062      185     4420
(PID.TID 0000.0001) buffer readvector      2114     3113     2114      185     4420
(PID.TID 0000.0001) buffer readvector      3126     4125     3126      185     4420
(PID.TID 0000.0001) buffer readvector      4163     4420     4163      185     4420
(PID.TID 0000.0001) bi,bj,prof_num,num_var        11        1      185        1
(PID.TID 0000.0001) bi,bj,prof_num,num_var        11        1      185        2
(PID.TID 0000.0001) bi,bj,prof_num,num_var        11        1      185        3
(PID.TID 0000.0001) bi,bj,prof_num,num_var        11        1      185        4
(PID.TID 0000.0001) bi,bj,prof_num,num_var        11        1      185        5
(PID.TID 0000.0001) bi,bj,prof_num,num_var        11        1      185        6
(PID.TID 0000.0001) buffer readvector         1       23       23      152     4420
(PID.TID 0000.0001) buffer readvector        25     1024       25      152     4420
(PID.TID 0000.0001) buffer readvector      1064     2063     1064      152     4420
(PID.TID 0000.0001) buffer readvector      2093     3092     2093      152     4420
(PID.TID 0000.0001) buffer readvector      3105     4104     3105      152     4420
(PID.TID 0000.0001) buffer readvector      4127     4420     4127      152     4420
(PID.TID 0000.0001) bi,bj,prof_num,num_var        12        1      152        1
(PID.TID 0000.0001) bi,bj,prof_num,num_var        12        1      152        2
(PID.TID 0000.0001) bi,bj,prof_num,num_var        12        1      152        3
(PID.TID 0000.0001) bi,bj,prof_num,num_var        12        1      152        4
(PID.TID 0000.0001) bi,bj,prof_num,num_var        12        1      152        5
(PID.TID 0000.0001) bi,bj,prof_num,num_var        12        1      152        6
(PID.TID 0000.0001) buffer readvector         1        1        1      253     4420
(PID.TID 0000.0001) buffer readvector         2     1001        2      253     4420
(PID.TID 0000.0001) buffer readvector      1016     2015     1016      253     4420
(PID.TID 0000.0001) buffer readvector      2028     3027     2028      253     4420
(PID.TID 0000.0001) buffer readvector      3038     4037     3038      253     4420
(PID.TID 0000.0001) buffer readvector      4045     4420     4045      253     4420
(PID.TID 0000.0001) bi,bj,prof_num,num_var        13        1      253        1
(PID.TID 0000.0001) bi,bj,prof_num,num_var        13        1      253        2
(PID.TID 0000.0001) bi,bj,prof_num,num_var        13        1      253        3
(PID.TID 0000.0001) bi,bj,prof_num,num_var        13        1      253        4
(PID.TID 0000.0001) bi,bj,prof_num,num_var        13        1      253        5
(PID.TID 0000.0001) bi,bj,prof_num,num_var        13        1      253        6
(PID.TID 0000.0001) buffer readvector         1       65       65      187     4420
(PID.TID 0000.0001) buffer readvector        84     1083       84      187     4420
(PID.TID 0000.0001) buffer readvector      1088     2087     1088      187     4420
(PID.TID 0000.0001) buffer readvector      2090     3089     2090      187     4420
(PID.TID 0000.0001) buffer readvector      3099     4098     3099      187     4420
(PID.TID 0000.0001) buffer readvector      4104     4420     4104      187     4420
(PID.TID 0000.0001) bi,bj,prof_num,num_var        14        1      187        1
(PID.TID 0000.0001) bi,bj,prof_num,num_var        14        1      187        2
(PID.TID 0000.0001) bi,bj,prof_num,num_var        14        1      187        3
(PID.TID 0000.0001) bi,bj,prof_num,num_var        14        1      187        4
(PID.TID 0000.0001) bi,bj,prof_num,num_var        14        1      187        5
(PID.TID 0000.0001) bi,bj,prof_num,num_var        14        1      187        6
(PID.TID 0000.0001) buffer readvector         1       27       27      256     4420
(PID.TID 0000.0001) buffer readvector        28     1027       28      256     4420
(PID.TID 0000.0001) buffer readvector      1038     2037     1038      256     4420
(PID.TID 0000.0001) buffer readvector      2047     3046     2047      256     4420
(PID.TID 0000.0001) buffer readvector      3057     4056     3057      256     4420
(PID.TID 0000.0001) buffer readvector      4059     4420     4059      256     4420
(PID.TID 0000.0001) bi,bj,prof_num,num_var        15        1      256        1
(PID.TID 0000.0001) bi,bj,prof_num,num_var        15        1      256        2
(PID.TID 0000.0001) bi,bj,prof_num,num_var        15        1      256        3
(PID.TID 0000.0001) bi,bj,prof_num,num_var        15        1      256        4
(PID.TID 0000.0001) bi,bj,prof_num,num_var        15        1      256        5
(PID.TID 0000.0001) bi,bj,prof_num,num_var        15        1      256        6
(PID.TID 0000.0001) buffer readvector         1        9        9      257     4420
(PID.TID 0000.0001) buffer readvector        88     1087       88      257     4420
(PID.TID 0000.0001) buffer readvector      1121     2120     1121      257     4420
(PID.TID 0000.0001) buffer readvector      2133     3132     2133      257     4420
(PID.TID 0000.0001) buffer readvector      3155     4154     3155      257     4420
(PID.TID 0000.0001) buffer readvector      4199     4420     4199      257     4420
(PID.TID 0000.0001) bi,bj,prof_num,num_var        16        1      257        1
(PID.TID 0000.0001) bi,bj,prof_num,num_var        16        1      257        2
(PID.TID 0000.0001) bi,bj,prof_num,num_var        16        1      257        3
(PID.TID 0000.0001) bi,bj,prof_num,num_var        16        1      257        4
(PID.TID 0000.0001) bi,bj,prof_num,num_var        16        1      257        5
(PID.TID 0000.0001) bi,bj,prof_num,num_var        16        1      257        6
(PID.TID 0000.0001) buffer readvector         1       15       15      188     4420
(PID.TID 0000.0001) buffer readvector        54     1053       54      188     4420
(PID.TID 0000.0001) buffer readvector      1092     2091     1092      188     4420
(PID.TID 0000.0001) buffer readvector      2103     3102     2103      188     4420
(PID.TID 0000.0001) buffer readvector      3209     4208     3209      188     4420
(PID.TID 0000.0001) buffer readvector      4242     4420     4242      188     4420
(PID.TID 0000.0001) bi,bj,prof_num,num_var        17        1      188        1
(PID.TID 0000.0001) bi,bj,prof_num,num_var        17        1      188        2
(PID.TID 0000.0001) bi,bj,prof_num,num_var        17        1      188        3
(PID.TID 0000.0001) bi,bj,prof_num,num_var        17        1      188        4
(PID.TID 0000.0001) bi,bj,prof_num,num_var        17        1      188        5
(PID.TID 0000.0001) bi,bj,prof_num,num_var        17        1      188        6
(PID.TID 0000.0001) buffer readvector         1        6        6      256     4420
(PID.TID 0000.0001) buffer readvector        21     1020       21      256     4420
(PID.TID 0000.0001) buffer readvector      1034     2033     1034      256     4420
(PID.TID 0000.0001) buffer readvector      2040     3039     2040      256     4420
(PID.TID 0000.0001) buffer readvector      3055     4054     3055      256     4420
(PID.TID 0000.0001) buffer readvector      4088     4420     4088      256     4420
(PID.TID 0000.0001) bi,bj,prof_num,num_var        18        1      256        1
(PID.TID 0000.0001) bi,bj,prof_num,num_var        18        1      256        2
(PID.TID 0000.0001) bi,bj,prof_num,num_var        18        1      256        3
(PID.TID 0000.0001) bi,bj,prof_num,num_var        18        1      256        4
(PID.TID 0000.0001) bi,bj,prof_num,num_var        18        1      256        5
(PID.TID 0000.0001) bi,bj,prof_num,num_var        18        1      256        6
(PID.TID 0000.0001) buffer readvector         1       49       49      194     4420
(PID.TID 0000.0001) buffer readvector        63     1062       63      194     4420
(PID.TID 0000.0001) buffer readvector      1091     2090     1091      194     4420
(PID.TID 0000.0001) buffer readvector      2129     3128     2129      194     4420
(PID.TID 0000.0001) buffer readvector      3207     4206     3207      194     4420
(PID.TID 0000.0001) buffer readvector      4216     4420     4216      194     4420
(PID.TID 0000.0001) bi,bj,prof_num,num_var        19        1      194        1
(PID.TID 0000.0001) bi,bj,prof_num,num_var        19        1      194        2
(PID.TID 0000.0001) bi,bj,prof_num,num_var        19        1      194        3
(PID.TID 0000.0001) bi,bj,prof_num,num_var        19        1      194        4
(PID.TID 0000.0001) bi,bj,prof_num,num_var        19        1      194        5
(PID.TID 0000.0001) bi,bj,prof_num,num_var        19        1      194        6
(PID.TID 0000.0001) buffer readvector         1      104      104      106     4420
(PID.TID 0000.0001) buffer readvector       111     1110      111      106     4420
(PID.TID 0000.0001) buffer readvector      1166     2165     1166      106     4420
(PID.TID 0000.0001) buffer readvector      2167     3166     2167      106     4420
(PID.TID 0000.0001) buffer readvector      3184     4183     3184      106     4420
(PID.TID 0000.0001) buffer readvector      4269     4420     4269      106     4420
(PID.TID 0000.0001) bi,bj,prof_num,num_var        20        1      106        1
(PID.TID 0000.0001) bi,bj,prof_num,num_var        20        1      106        2
(PID.TID 0000.0001) bi,bj,prof_num,num_var        20        1      106        3
(PID.TID 0000.0001) bi,bj,prof_num,num_var        20        1      106        4
(PID.TID 0000.0001) bi,bj,prof_num,num_var        20        1      106        5
(PID.TID 0000.0001) bi,bj,prof_num,num_var        20        1      106        6
(PID.TID 0000.0001) buffer readvector         1       29       29      235     4420
(PID.TID 0000.0001) buffer readvector        55     1054       55      235     4420
(PID.TID 0000.0001) buffer readvector      1073     2072     1073      235     4420
(PID.TID 0000.0001) buffer readvector      2073     3072     2073      235     4420
(PID.TID 0000.0001) buffer readvector      3094     4093     3094      235     4420
(PID.TID 0000.0001) buffer readvector      4112     4420     4112      235     4420
(PID.TID 0000.0001) bi,bj,prof_num,num_var        21        1      235        1
(PID.TID 0000.0001) bi,bj,prof_num,num_var        21        1      235        2
(PID.TID 0000.0001) bi,bj,prof_num,num_var        21        1      235        3
(PID.TID 0000.0001) bi,bj,prof_num,num_var        21        1      235        4
(PID.TID 0000.0001) bi,bj,prof_num,num_var        21        1      235        5
(PID.TID 0000.0001) bi,bj,prof_num,num_var        21        1      235        6
(PID.TID 0000.0001) buffer readvector         1        5        5      212     4420
(PID.TID 0000.0001) buffer readvector        50     1049       50      212     4420
(PID.TID 0000.0001) buffer readvector      1051     2050     1051      212     4420
(PID.TID 0000.0001) buffer readvector      2067     3066     2067      212     4420
(PID.TID 0000.0001) buffer readvector      3084     4083     3084      212     4420
(PID.TID 0000.0001) buffer readvector      4087     4420     4087      212     4420
(PID.TID 0000.0001) bi,bj,prof_num,num_var        22        1      212        1
(PID.TID 0000.0001) bi,bj,prof_num,num_var        22        1      212        2
(PID.TID 0000.0001) bi,bj,prof_num,num_var        22        1      212        3
(PID.TID 0000.0001) bi,bj,prof_num,num_var        22        1      212        4
(PID.TID 0000.0001) bi,bj,prof_num,num_var        22        1      212        5
(PID.TID 0000.0001) bi,bj,prof_num,num_var        22        1      212        6
(PID.TID 0000.0001) buffer readvector         1       40       40      225     4420
(PID.TID 0000.0001) buffer readvector       119     1118      119      225     4420
(PID.TID 0000.0001) buffer readvector      1126     2125     1126      225     4420
(PID.TID 0000.0001) buffer readvector      2134     3133     2134      225     4420
(PID.TID 0000.0001) buffer readvector      3194     4193     3194      225     4420
(PID.TID 0000.0001) buffer readvector      4205     4420     4205      225     4420
(PID.TID 0000.0001) bi,bj,prof_num,num_var        23        1      225        1
(PID.TID 0000.0001) bi,bj,prof_num,num_var        23        1      225        2
(PID.TID 0000.0001) bi,bj,prof_num,num_var        23        1      225        3
(PID.TID 0000.0001) bi,bj,prof_num,num_var        23        1      225        4
(PID.TID 0000.0001) bi,bj,prof_num,num_var        23        1      225        5
(PID.TID 0000.0001) bi,bj,prof_num,num_var        23        1      225        6
(PID.TID 0000.0001) buffer readvector         1       13       13      213     4420
(PID.TID 0000.0001) buffer readvector        17     1016       17      213     4420
(PID.TID 0000.0001) buffer readvector      1022     2021     1022      213     4420
(PID.TID 0000.0001) buffer readvector      2022     3021     2022      213     4420
(PID.TID 0000.0001) buffer readvector      3032     4031     3032      213     4420
(PID.TID 0000.0001) buffer readvector      4040     4420     4040      213     4420
(PID.TID 0000.0001) bi,bj,prof_num,num_var        24        1      213        1
(PID.TID 0000.0001) bi,bj,prof_num,num_var        24        1      213        2
(PID.TID 0000.0001) bi,bj,prof_num,num_var        24        1      213        3
(PID.TID 0000.0001) bi,bj,prof_num,num_var        24        1      213        4
(PID.TID 0000.0001) bi,bj,prof_num,num_var        24        1      213        5
(PID.TID 0000.0001) bi,bj,prof_num,num_var        24        1      213        6
 --> f_ice     = 0.000000000000000D+00
 --> f_smrarea = 0.000000000000000D+00
 --> f_smrarea = 0.000000000000000D+00
 --> f_smrarea = 0.000000000000000D+00
 --> f_temp    = 0.365003497270133D+05
 --> f_salt    = 0.247660882407232D+05
 --> f_temp0   = 0.999999955296517D-04
 --> f_salt0   = 0.000000000000000D+00
 --> f_temp0smoo = 0.000000000000000D+00
 --> f_salt0smoo = 0.000000000000000D+00
 --> f_etan0   = 0.000000000000000D+00
 --> f_uvel0   = 0.000000000000000D+00
 --> f_vvel0   = 0.000000000000000D+00
 --> f_sst     = 0.000000000000000D+00
 --> f_tmi     = 0.000000000000000D+00
 --> f_sss     = 0.000000000000000D+00
 --> f_bp      = 0.000000000000000D+00
 --> f_ies      = 0.000000000000000D+00
 --> f_ssh       = 0.000000000000000D+00
 --> f_tp        = 0.000000000000000D+00
 --> f_ers       = 0.000000000000000D+00
 --> f_gfo       = 0.000000000000000D+00
 --> f_tauu    = 0.000000000000000D+00
 --> f_tauum   = 0.000000000000000D+00
 --> f_tauusmoo = 0.000000000000000D+00
 --> f_tauv    = 0.000000000000000D+00
 --> f_tauvm   = 0.000000000000000D+00
 --> f_tauvsmoo = 0.000000000000000D+00
 --> f_hflux   = 0.000000000000000D+00
 --> f_hfluxmm = 0.000000000000000D+00
 --> f_hfluxsmoo = 0.000000000000000D+00
 --> f_sflux   = 0.000000000000000D+00
 --> f_sfluxmm = 0.000000000000000D+00
 --> f_sfluxsmoo = 0.000000000000000D+00
 --> f_uwind     = 0.000000000000000D+00
 --> f_vwind     = 0.000000000000000D+00
 --> f_atemp     = 0.000000000000000D+00
 --> f_aqh     = 0.000000000000000D+00
 --> f_precip  = 0.000000000000000D+00
 --> f_swflux  = 0.000000000000000D+00
 --> f_swdown  = 0.000000000000000D+00
 --> f_uwindm     = 0.000000000000000D+00
 --> f_vwindm     = 0.000000000000000D+00
 --> f_atempm     = 0.000000000000000D+00
 --> f_aqhm     = 0.000000000000000D+00
 --> f_precipm  = 0.000000000000000D+00
 --> f_swfluxm  = 0.000000000000000D+00
 --> f_swdownm  = 0.000000000000000D+00
 --> f_uwindsmoo     = 0.000000000000000D+00
 --> f_vwindsmoo     = 0.000000000000000D+00
 --> f_atempsmoo     = 0.000000000000000D+00
 --> f_aqhsmoo     = 0.000000000000000D+00
 --> f_precipsmoo  = 0.000000000000000D+00
 --> f_swfluxsmoo  = 0.000000000000000D+00
 --> f_swdownsmoo  = 0.000000000000000D+00
 --> f_atl     = 0.000000000000000D+00
 --> f_ctdt    = 0.000000000000000D+00
 --> f_ctds    = 0.000000000000000D+00
 --> f_ctdtclim= 0.000000000000000D+00
 --> f_ctdsclim= 0.000000000000000D+00
 --> f_xbt     = 0.000000000000000D+00
 --> f_argot   = 0.000000000000000D+00
 --> f_argos   = 0.000000000000000D+00
 --> f_drifter   = 0.000000000000000D+00
 --> f_tdrift  = 0.000000000000000D+00
 --> f_sdrift  = 0.000000000000000D+00
 --> f_wdrift  = 0.000000000000000D+00
 --> f_scatx   = 0.000000000000000D+00
 --> f_scaty   = 0.000000000000000D+00
 --> f_scatxm  = 0.000000000000000D+00
 --> f_scatym  = 0.000000000000000D+00
 --> f_obcsn   = 0.000000000000000D+00
 --> f_obcss   = 0.000000000000000D+00
 --> f_obcsw   = 0.000000000000000D+00
 --> f_obcse   = 0.000000000000000D+00
 --> f_ageos   = 0.000000000000000D+00
 --> f_curmtr  = 0.000000000000000D+00
 --> f_kapgm   = 0.000000000000000D+00
 --> f_kapredi   = 0.000000000000000D+00
 --> f_diffkr  = 0.000000000000000D+00
 --> f_eddytau = 0.000000000000000D+00
 --> f_bottomdrag = 0.000000000000000D+00
 --> f_profiles = 0.134973033767095D+04 1 1
 --> f_profiles = 0.229260626278722D+05 1 2
 --> f_profiles = 0.000000000000000D+00 1 3
 --> f_profiles = 0.000000000000000D+00 1 4
 --> f_profiles = 0.000000000000000D+00 1 5
 --> f_profiles = 0.000000000000000D+00 1 6
 --> f_hfluxmm2           = 0.000000000000000D+00
 --> f_sfluxmm2           = 0.000000000000000D+00
 --> f_transp             = 0.000000000000000D+00
 --> objf_hmean           = 0.000000000000000D+00
 --> fc               = 0.000000000000000D+00
  early fc =  0.000000000000000D+00
 --> objf_test(bi,bj)   =  0.000000000000000D+00
 --> objf_tracer(bi,bj) =  0.000000000000000D+00
 --> objf_atl(bi,bj)    =  0.000000000000000D+00
 --> objf_test(bi,bj)   =  0.000000000000000D+00
 --> objf_tracer(bi,bj) =  0.000000000000000D+00
 --> objf_atl(bi,bj)    =  0.000000000000000D+00
 --> objf_test(bi,bj)   =  0.000000000000000D+00
 --> objf_tracer(bi,bj) =  0.000000000000000D+00
 --> objf_atl(bi,bj)    =  0.000000000000000D+00
 --> objf_test(bi,bj)   =  0.000000000000000D+00
 --> objf_tracer(bi,bj) =  0.000000000000000D+00
 --> objf_atl(bi,bj)    =  0.000000000000000D+00
 --> objf_test(bi,bj)   =  0.000000000000000D+00
 --> objf_tracer(bi,bj) =  0.000000000000000D+00
 --> objf_atl(bi,bj)    =  0.000000000000000D+00
 --> objf_test(bi,bj)   =  0.000000000000000D+00
 --> objf_tracer(bi,bj) =  0.000000000000000D+00
 --> objf_atl(bi,bj)    =  0.000000000000000D+00
 --> objf_test(bi,bj)   =  0.000000000000000D+00
 --> objf_tracer(bi,bj) =  0.000000000000000D+00
 --> objf_atl(bi,bj)    =  0.000000000000000D+00
 --> objf_test(bi,bj)   =  0.000000000000000D+00
 --> objf_tracer(bi,bj) =  0.000000000000000D+00
 --> objf_atl(bi,bj)    =  0.000000000000000D+00
 --> objf_test(bi,bj)   =  0.000000000000000D+00
 --> objf_tracer(bi,bj) =  0.000000000000000D+00
 --> objf_atl(bi,bj)    =  0.000000000000000D+00
 --> objf_test(bi,bj)   =  0.000000000000000D+00
 --> objf_tracer(bi,bj) =  0.000000000000000D+00
 --> objf_atl(bi,bj)    =  0.000000000000000D+00
 --> objf_test(bi,bj)   =  0.000000000000000D+00
 --> objf_tracer(bi,bj) =  0.000000000000000D+00
 --> objf_atl(bi,bj)    =  0.000000000000000D+00
 --> objf_test(bi,bj)   =  0.000000000000000D+00
 --> objf_tracer(bi,bj) =  0.000000000000000D+00
 --> objf_atl(bi,bj)    =  0.000000000000000D+00
 --> objf_test(bi,bj)   =  0.000000000000000D+00
 --> objf_tracer(bi,bj) =  0.000000000000000D+00
 --> objf_atl(bi,bj)    =  0.000000000000000D+00
 --> objf_test(bi,bj)   =  0.000000000000000D+00
 --> objf_tracer(bi,bj) =  0.000000000000000D+00
 --> objf_atl(bi,bj)    =  0.000000000000000D+00
 --> objf_test(bi,bj)   =  0.000000000000000D+00
 --> objf_tracer(bi,bj) =  0.000000000000000D+00
 --> objf_atl(bi,bj)    =  0.000000000000000D+00
 --> objf_test(bi,bj)   =  0.000000000000000D+00
 --> objf_tracer(bi,bj) =  0.000000000000000D+00
 --> objf_atl(bi,bj)    =  0.000000000000000D+00
 --> objf_test(bi,bj)   =  0.000000000000000D+00
 --> objf_tracer(bi,bj) =  0.000000000000000D+00
 --> objf_atl(bi,bj)    =  0.000000000000000D+00
 --> objf_test(bi,bj)   =  0.000000000000000D+00
 --> objf_tracer(bi,bj) =  0.000000000000000D+00
 --> objf_atl(bi,bj)    =  0.000000000000000D+00
 --> objf_test(bi,bj)   =  0.000000000000000D+00
 --> objf_tracer(bi,bj) =  0.000000000000000D+00
 --> objf_atl(bi,bj)    =  0.000000000000000D+00
 --> objf_test(bi,bj)   =  0.000000000000000D+00
 --> objf_tracer(bi,bj) =  0.000000000000000D+00
 --> objf_atl(bi,bj)    =  0.000000000000000D+00
 --> objf_test(bi,bj)   =  0.000000000000000D+00
 --> objf_tracer(bi,bj) =  0.000000000000000D+00
 --> objf_atl(bi,bj)    =  0.000000000000000D+00
 --> objf_test(bi,bj)   =  0.000000000000000D+00
 --> objf_tracer(bi,bj) =  0.000000000000000D+00
 --> objf_atl(bi,bj)    =  0.000000000000000D+00
 --> objf_test(bi,bj)   =  0.000000000000000D+00
 --> objf_tracer(bi,bj) =  0.000000000000000D+00
 --> objf_atl(bi,bj)    =  0.000000000000000D+00
 --> objf_test(bi,bj)   =  0.000000000000000D+00
 --> objf_tracer(bi,bj) =  0.000000000000000D+00
 --> objf_atl(bi,bj)    =  0.000000000000000D+00
  local fc =  0.242757930655431D+05
 global fc =  0.242757930655431D+05
(PID.TID 0000.0001) grdchk perturb(-)fc: fcpertminus =  2.42757930655431E+04
grad-res -------------------------------
 grad-res     0    2    2    1    1    1    1    1   2.42757986140E+04  2.42758043658E+04  2.42757930655E+04
 grad-res     0    2    2    2    0    1    1    1   5.62698721886E-01  5.65015146276E-01 -4.11663346691E-03
(PID.TID 0000.0001)  ADM  ref_cost_function      =  2.42757986140463E+04
(PID.TID 0000.0001)  ADM  adjoint_gradient       =  5.62698721885681E-01
(PID.TID 0000.0001)  ADM  finite-diff_grad       =  5.65015146275982E-01
(PID.TID 0000.0001) ====== End of gradient-check number   2 (ierr=  0) =======
(PID.TID 0000.0001) ====== Starts gradient-check number   3 (=ichknum) =======
 ph-test icomp, ncvarcomp, ichknum            3      185786           3
 ph-grd _loc: bi, bj, icomptest, ichknum            1           1           2           3
 ph-grd -->hit<--            3           1           1           1
(PID.TID 0000.0001) grdchk pos: i,j,k=    3    1    1 ; bi,bj=   1   1 ; iobc=  1 ; rec=   1
(PID.TID 0000.0001) Start initial hydrostatic pressure computation
(PID.TID 0000.0001) Pressure is predetermined for buoyancyRelation OCEANIC
(PID.TID 0000.0001) 
(PID.TID 0000.0001) // =======================================================
(PID.TID 0000.0001) // Model current state
(PID.TID 0000.0001) // =======================================================
(PID.TID 0000.0001) 
(PID.TID 0000.0001) SOLVE_FOR_PRESSURE: putPmEinXvector =    F
 cg2d: Sum(rhs),rhsMax =   7.73551084252141E-01  6.80494402338444E+00
 cg2d: Sum(rhs),rhsMax =   1.52697331845444E+00  8.23373653180978E+00
 cg2d: Sum(rhs),rhsMax =   2.27601713104194E+00  7.98039283461115E+00
 cg2d: Sum(rhs),rhsMax =   3.02165530559617E+00  7.75066850331714E+00
 cg2d: Sum(rhs),rhsMax =   3.74608456534520E+00  7.66158157283297E+00
 cg2d: Sum(rhs),rhsMax =   4.45761283926785E+00  7.62173353380290E+00
 cg2d: Sum(rhs),rhsMax =   5.15910845921451E+00  7.59748649024349E+00
 cg2d: Sum(rhs),rhsMax =   5.85338866633779E+00  7.57707687124830E+00
(PID.TID 0000.0001) Did not write pickup because writePickupAtEnd = FALSE
(PID.TID 0000.0001) ph-cost call cost_theta0
(PID.TID 0000.0001) ph-cost call cost_salt0
(PID.TID 0000.0001) ph-cost call cost_theta
(PID.TID 0000.0001) ph-cost call cost_salt
(PID.TID 0000.0001) buffer readvector         1       11       11      237     4420
(PID.TID 0000.0001) buffer readvector        19     1018       19      237     4420
(PID.TID 0000.0001) buffer readvector      1036     2035     1036      237     4420
(PID.TID 0000.0001) buffer readvector      2037     3036     2037      237     4420
(PID.TID 0000.0001) buffer readvector      3045     4044     3045      237     4420
(PID.TID 0000.0001) buffer readvector      4050     4420     4050      237     4420
(PID.TID 0000.0001) bi,bj,prof_num,num_var         1        1      237        1
(PID.TID 0000.0001) bi,bj,prof_num,num_var         1        1      237        2
(PID.TID 0000.0001) bi,bj,prof_num,num_var         1        1      237        3
(PID.TID 0000.0001) bi,bj,prof_num,num_var         1        1      237        4
(PID.TID 0000.0001) bi,bj,prof_num,num_var         1        1      237        5
(PID.TID 0000.0001) bi,bj,prof_num,num_var         1        1      237        6
(PID.TID 0000.0001) buffer readvector         1       34       34      152     4420
(PID.TID 0000.0001) buffer readvector        42     1041       42      152     4420
(PID.TID 0000.0001) buffer readvector      1095     2094     1095      152     4420
(PID.TID 0000.0001) buffer readvector      2111     3110     2111      152     4420
(PID.TID 0000.0001) buffer readvector      3148     4147     3148      152     4420
(PID.TID 0000.0001) buffer readvector      4162     4420     4162      152     4420
(PID.TID 0000.0001) bi,bj,prof_num,num_var         2        1      152        1
(PID.TID 0000.0001) bi,bj,prof_num,num_var         2        1      152        2
(PID.TID 0000.0001) bi,bj,prof_num,num_var         2        1      152        3
(PID.TID 0000.0001) bi,bj,prof_num,num_var         2        1      152        4
(PID.TID 0000.0001) bi,bj,prof_num,num_var         2        1      152        5
(PID.TID 0000.0001) bi,bj,prof_num,num_var         2        1      152        6
(PID.TID 0000.0001) buffer readvector         1        8        8      205     4420
(PID.TID 0000.0001) buffer readvector        24     1023       24      205     4420
(PID.TID 0000.0001) buffer readvector      1027     2026     1027      205     4420
(PID.TID 0000.0001) buffer readvector      2031     3030     2031      205     4420
(PID.TID 0000.0001) buffer readvector      3066     4065     3066      205     4420
(PID.TID 0000.0001) buffer readvector      4066     4420     4066      205     4420
(PID.TID 0000.0001) bi,bj,prof_num,num_var         3        1      205        1
(PID.TID 0000.0001) bi,bj,prof_num,num_var         3        1      205        2
(PID.TID 0000.0001) bi,bj,prof_num,num_var         3        1      205        3
(PID.TID 0000.0001) bi,bj,prof_num,num_var         3        1      205        4
(PID.TID 0000.0001) bi,bj,prof_num,num_var         3        1      205        5
(PID.TID 0000.0001) bi,bj,prof_num,num_var         3        1      205        6
(PID.TID 0000.0001) buffer readvector         1        7        7       45     4420
(PID.TID 0000.0001) buffer readvector       150     1149      150       45     4420
(PID.TID 0000.0001) buffer readvector      1233     2232     1233       45     4420
(PID.TID 0000.0001) buffer readvector      2437     3436     2437       45     4420
(PID.TID 0000.0001) buffer readvector      3684     4420     3684       45     4420
(PID.TID 0000.0001) bi,bj,prof_num,num_var         4        1       45        1
(PID.TID 0000.0001) bi,bj,prof_num,num_var         4        1       45        2
(PID.TID 0000.0001) bi,bj,prof_num,num_var         4        1       45        3
(PID.TID 0000.0001) bi,bj,prof_num,num_var         4        1       45        4
(PID.TID 0000.0001) bi,bj,prof_num,num_var         4        1       45        5
(PID.TID 0000.0001) bi,bj,prof_num,num_var         4        1       45        6
(PID.TID 0000.0001) buffer readvector         1        3        3      250     4420
(PID.TID 0000.0001) buffer readvector        12     1011       12      250     4420
(PID.TID 0000.0001) buffer readvector      1031     2030     1031      250     4420
(PID.TID 0000.0001) buffer readvector      2091     3090     2091      250     4420
(PID.TID 0000.0001) buffer readvector      3108     4107     3108      250     4420
(PID.TID 0000.0001) buffer readvector      4121     4420     4121      250     4420
(PID.TID 0000.0001) bi,bj,prof_num,num_var         5        1      250        1
(PID.TID 0000.0001) bi,bj,prof_num,num_var         5        1      250        2
(PID.TID 0000.0001) bi,bj,prof_num,num_var         5        1      250        3
(PID.TID 0000.0001) bi,bj,prof_num,num_var         5        1      250        4
(PID.TID 0000.0001) bi,bj,prof_num,num_var         5        1      250        5
(PID.TID 0000.0001) bi,bj,prof_num,num_var         5        1      250        6
(PID.TID 0000.0001) buffer readvector         1       10       10      192     4420
(PID.TID 0000.0001) buffer readvector        38     1037       38      192     4420
(PID.TID 0000.0001) buffer readvector      1047     2046     1047      192     4420
(PID.TID 0000.0001) buffer readvector      2049     3048     2049      192     4420
(PID.TID 0000.0001) buffer readvector      3104     4103     3104      192     4420
(PID.TID 0000.0001) buffer readvector      4109     4420     4109      192     4420
(PID.TID 0000.0001) bi,bj,prof_num,num_var         6        1      192        1
(PID.TID 0000.0001) bi,bj,prof_num,num_var         6        1      192        2
(PID.TID 0000.0001) bi,bj,prof_num,num_var         6        1      192        3
(PID.TID 0000.0001) bi,bj,prof_num,num_var         6        1      192        4
(PID.TID 0000.0001) bi,bj,prof_num,num_var         6        1      192        5
(PID.TID 0000.0001) bi,bj,prof_num,num_var         6        1      192        6
(PID.TID 0000.0001) buffer readvector         1        4        4      108     4420
(PID.TID 0000.0001) buffer readvector        20     1019       20      108     4420
(PID.TID 0000.0001) buffer readvector      1075     2074     1075      108     4420
(PID.TID 0000.0001) buffer readvector      2143     3142     2143      108     4420
(PID.TID 0000.0001) buffer readvector      3165     4164     3165      108     4420
(PID.TID 0000.0001) buffer readvector      4201     4420     4201      108     4420
(PID.TID 0000.0001) bi,bj,prof_num,num_var         7        1      108        1
(PID.TID 0000.0001) bi,bj,prof_num,num_var         7        1      108        2
(PID.TID 0000.0001) bi,bj,prof_num,num_var         7        1      108        3
(PID.TID 0000.0001) bi,bj,prof_num,num_var         7        1      108        4
(PID.TID 0000.0001) bi,bj,prof_num,num_var         7        1      108        5
(PID.TID 0000.0001) bi,bj,prof_num,num_var         7        1      108        6
(PID.TID 0000.0001) buffer readvector         1       22       22      146     4420
(PID.TID 0000.0001) buffer readvector        53     1052       53      146     4420
(PID.TID 0000.0001) buffer readvector      1080     2079     1080      146     4420
(PID.TID 0000.0001) buffer readvector      2105     3104     2105      146     4420
(PID.TID 0000.0001) buffer readvector      3120     4119     3120      146     4420
(PID.TID 0000.0001) buffer readvector      4122     4420     4122      146     4420
(PID.TID 0000.0001) bi,bj,prof_num,num_var         8        1      146        1
(PID.TID 0000.0001) bi,bj,prof_num,num_var         8        1      146        2
(PID.TID 0000.0001) bi,bj,prof_num,num_var         8        1      146        3
(PID.TID 0000.0001) bi,bj,prof_num,num_var         8        1      146        4
(PID.TID 0000.0001) bi,bj,prof_num,num_var         8        1      146        5
(PID.TID 0000.0001) bi,bj,prof_num,num_var         8        1      146        6
(PID.TID 0000.0001) buffer readvector         1       93       93       55     4420
(PID.TID 0000.0001) buffer readvector       123     1122      123       55     4420
(PID.TID 0000.0001) buffer readvector      1148     2147     1148       55     4420
(PID.TID 0000.0001) buffer readvector      2174     3173     2174       55     4420
(PID.TID 0000.0001) buffer readvector      3177     4176     3177       55     4420
(PID.TID 0000.0001) buffer readvector      4244     4420     4244       55     4420
(PID.TID 0000.0001) bi,bj,prof_num,num_var         9        1       55        1
(PID.TID 0000.0001) bi,bj,prof_num,num_var         9        1       55        2
(PID.TID 0000.0001) bi,bj,prof_num,num_var         9        1       55        3
(PID.TID 0000.0001) bi,bj,prof_num,num_var         9        1       55        4
(PID.TID 0000.0001) bi,bj,prof_num,num_var         9        1       55        5
(PID.TID 0000.0001) bi,bj,prof_num,num_var         9        1       55        6
(PID.TID 0000.0001) buffer readvector         1       52       52      111     4420
(PID.TID 0000.0001) buffer readvector        90     1089       90      111     4420
(PID.TID 0000.0001) buffer readvector      1099     2098     1099      111     4420
(PID.TID 0000.0001) buffer readvector      2122     3121     2122      111     4420
(PID.TID 0000.0001) buffer readvector      3167     4166     3167      111     4420
(PID.TID 0000.0001) buffer readvector      4214     4420     4214      111     4420
(PID.TID 0000.0001) bi,bj,prof_num,num_var        10        1      111        1
(PID.TID 0000.0001) bi,bj,prof_num,num_var        10        1      111        2
(PID.TID 0000.0001) bi,bj,prof_num,num_var        10        1      111        3
(PID.TID 0000.0001) bi,bj,prof_num,num_var        10        1      111        4
(PID.TID 0000.0001) bi,bj,prof_num,num_var        10        1      111        5
(PID.TID 0000.0001) bi,bj,prof_num,num_var        10        1      111        6
(PID.TID 0000.0001) buffer readvector         1       43       43      185     4420
(PID.TID 0000.0001) buffer readvector        48     1047       48      185     4420
(PID.TID 0000.0001) buffer readvector      1062     2061     1062      185     4420
(PID.TID 0000.0001) buffer readvector      2114     3113     2114      185     4420
(PID.TID 0000.0001) buffer readvector      3126     4125     3126      185     4420
(PID.TID 0000.0001) buffer readvector      4163     4420     4163      185     4420
(PID.TID 0000.0001) bi,bj,prof_num,num_var        11        1      185        1
(PID.TID 0000.0001) bi,bj,prof_num,num_var        11        1      185        2
(PID.TID 0000.0001) bi,bj,prof_num,num_var        11        1      185        3
(PID.TID 0000.0001) bi,bj,prof_num,num_var        11        1      185        4
(PID.TID 0000.0001) bi,bj,prof_num,num_var        11        1      185        5
(PID.TID 0000.0001) bi,bj,prof_num,num_var        11        1      185        6
(PID.TID 0000.0001) buffer readvector         1       23       23      152     4420
(PID.TID 0000.0001) buffer readvector        25     1024       25      152     4420
(PID.TID 0000.0001) buffer readvector      1064     2063     1064      152     4420
(PID.TID 0000.0001) buffer readvector      2093     3092     2093      152     4420
(PID.TID 0000.0001) buffer readvector      3105     4104     3105      152     4420
(PID.TID 0000.0001) buffer readvector      4127     4420     4127      152     4420
(PID.TID 0000.0001) bi,bj,prof_num,num_var        12        1      152        1
(PID.TID 0000.0001) bi,bj,prof_num,num_var        12        1      152        2
(PID.TID 0000.0001) bi,bj,prof_num,num_var        12        1      152        3
(PID.TID 0000.0001) bi,bj,prof_num,num_var        12        1      152        4
(PID.TID 0000.0001) bi,bj,prof_num,num_var        12        1      152        5
(PID.TID 0000.0001) bi,bj,prof_num,num_var        12        1      152        6
(PID.TID 0000.0001) buffer readvector         1        1        1      253     4420
(PID.TID 0000.0001) buffer readvector         2     1001        2      253     4420
(PID.TID 0000.0001) buffer readvector      1016     2015     1016      253     4420
(PID.TID 0000.0001) buffer readvector      2028     3027     2028      253     4420
(PID.TID 0000.0001) buffer readvector      3038     4037     3038      253     4420
(PID.TID 0000.0001) buffer readvector      4045     4420     4045      253     4420
(PID.TID 0000.0001) bi,bj,prof_num,num_var        13        1      253        1
(PID.TID 0000.0001) bi,bj,prof_num,num_var        13        1      253        2
(PID.TID 0000.0001) bi,bj,prof_num,num_var        13        1      253        3
(PID.TID 0000.0001) bi,bj,prof_num,num_var        13        1      253        4
(PID.TID 0000.0001) bi,bj,prof_num,num_var        13        1      253        5
(PID.TID 0000.0001) bi,bj,prof_num,num_var        13        1      253        6
(PID.TID 0000.0001) buffer readvector         1       65       65      187     4420
(PID.TID 0000.0001) buffer readvector        84     1083       84      187     4420
(PID.TID 0000.0001) buffer readvector      1088     2087     1088      187     4420
(PID.TID 0000.0001) buffer readvector      2090     3089     2090      187     4420
(PID.TID 0000.0001) buffer readvector      3099     4098     3099      187     4420
(PID.TID 0000.0001) buffer readvector      4104     4420     4104      187     4420
(PID.TID 0000.0001) bi,bj,prof_num,num_var        14        1      187        1
(PID.TID 0000.0001) bi,bj,prof_num,num_var        14        1      187        2
(PID.TID 0000.0001) bi,bj,prof_num,num_var        14        1      187        3
(PID.TID 0000.0001) bi,bj,prof_num,num_var        14        1      187        4
(PID.TID 0000.0001) bi,bj,prof_num,num_var        14        1      187        5
(PID.TID 0000.0001) bi,bj,prof_num,num_var        14        1      187        6
(PID.TID 0000.0001) buffer readvector         1       27       27      256     4420
(PID.TID 0000.0001) buffer readvector        28     1027       28      256     4420
(PID.TID 0000.0001) buffer readvector      1038     2037     1038      256     4420
(PID.TID 0000.0001) buffer readvector      2047     3046     2047      256     4420
(PID.TID 0000.0001) buffer readvector      3057     4056     3057      256     4420
(PID.TID 0000.0001) buffer readvector      4059     4420     4059      256     4420
(PID.TID 0000.0001) bi,bj,prof_num,num_var        15        1      256        1
(PID.TID 0000.0001) bi,bj,prof_num,num_var        15        1      256        2
(PID.TID 0000.0001) bi,bj,prof_num,num_var        15        1      256        3
(PID.TID 0000.0001) bi,bj,prof_num,num_var        15        1      256        4
(PID.TID 0000.0001) bi,bj,prof_num,num_var        15        1      256        5
(PID.TID 0000.0001) bi,bj,prof_num,num_var        15        1      256        6
(PID.TID 0000.0001) buffer readvector         1        9        9      257     4420
(PID.TID 0000.0001) buffer readvector        88     1087       88      257     4420
(PID.TID 0000.0001) buffer readvector      1121     2120     1121      257     4420
(PID.TID 0000.0001) buffer readvector      2133     3132     2133      257     4420
(PID.TID 0000.0001) buffer readvector      3155     4154     3155      257     4420
(PID.TID 0000.0001) buffer readvector      4199     4420     4199      257     4420
(PID.TID 0000.0001) bi,bj,prof_num,num_var        16        1      257        1
(PID.TID 0000.0001) bi,bj,prof_num,num_var        16        1      257        2
(PID.TID 0000.0001) bi,bj,prof_num,num_var        16        1      257        3
(PID.TID 0000.0001) bi,bj,prof_num,num_var        16        1      257        4
(PID.TID 0000.0001) bi,bj,prof_num,num_var        16        1      257        5
(PID.TID 0000.0001) bi,bj,prof_num,num_var        16        1      257        6
(PID.TID 0000.0001) buffer readvector         1       15       15      188     4420
(PID.TID 0000.0001) buffer readvector        54     1053       54      188     4420
(PID.TID 0000.0001) buffer readvector      1092     2091     1092      188     4420
(PID.TID 0000.0001) buffer readvector      2103     3102     2103      188     4420
(PID.TID 0000.0001) buffer readvector      3209     4208     3209      188     4420
(PID.TID 0000.0001) buffer readvector      4242     4420     4242      188     4420
(PID.TID 0000.0001) bi,bj,prof_num,num_var        17        1      188        1
(PID.TID 0000.0001) bi,bj,prof_num,num_var        17        1      188        2
(PID.TID 0000.0001) bi,bj,prof_num,num_var        17        1      188        3
(PID.TID 0000.0001) bi,bj,prof_num,num_var        17        1      188        4
(PID.TID 0000.0001) bi,bj,prof_num,num_var        17        1      188        5
(PID.TID 0000.0001) bi,bj,prof_num,num_var        17        1      188        6
(PID.TID 0000.0001) buffer readvector         1        6        6      256     4420
(PID.TID 0000.0001) buffer readvector        21     1020       21      256     4420
(PID.TID 0000.0001) buffer readvector      1034     2033     1034      256     4420
(PID.TID 0000.0001) buffer readvector      2040     3039     2040      256     4420
(PID.TID 0000.0001) buffer readvector      3055     4054     3055      256     4420
(PID.TID 0000.0001) buffer readvector      4088     4420     4088      256     4420
(PID.TID 0000.0001) bi,bj,prof_num,num_var        18        1      256        1
(PID.TID 0000.0001) bi,bj,prof_num,num_var        18        1      256        2
(PID.TID 0000.0001) bi,bj,prof_num,num_var        18        1      256        3
(PID.TID 0000.0001) bi,bj,prof_num,num_var        18        1      256        4
(PID.TID 0000.0001) bi,bj,prof_num,num_var        18        1      256        5
(PID.TID 0000.0001) bi,bj,prof_num,num_var        18        1      256        6
(PID.TID 0000.0001) buffer readvector         1       49       49      194     4420
(PID.TID 0000.0001) buffer readvector        63     1062       63      194     4420
(PID.TID 0000.0001) buffer readvector      1091     2090     1091      194     4420
(PID.TID 0000.0001) buffer readvector      2129     3128     2129      194     4420
(PID.TID 0000.0001) buffer readvector      3207     4206     3207      194     4420
(PID.TID 0000.0001) buffer readvector      4216     4420     4216      194     4420
(PID.TID 0000.0001) bi,bj,prof_num,num_var        19        1      194        1
(PID.TID 0000.0001) bi,bj,prof_num,num_var        19        1      194        2
(PID.TID 0000.0001) bi,bj,prof_num,num_var        19        1      194        3
(PID.TID 0000.0001) bi,bj,prof_num,num_var        19        1      194        4
(PID.TID 0000.0001) bi,bj,prof_num,num_var        19        1      194        5
(PID.TID 0000.0001) bi,bj,prof_num,num_var        19        1      194        6
(PID.TID 0000.0001) buffer readvector         1      104      104      106     4420
(PID.TID 0000.0001) buffer readvector       111     1110      111      106     4420
(PID.TID 0000.0001) buffer readvector      1166     2165     1166      106     4420
(PID.TID 0000.0001) buffer readvector      2167     3166     2167      106     4420
(PID.TID 0000.0001) buffer readvector      3184     4183     3184      106     4420
(PID.TID 0000.0001) buffer readvector      4269     4420     4269      106     4420
(PID.TID 0000.0001) bi,bj,prof_num,num_var        20        1      106        1
(PID.TID 0000.0001) bi,bj,prof_num,num_var        20        1      106        2
(PID.TID 0000.0001) bi,bj,prof_num,num_var        20        1      106        3
(PID.TID 0000.0001) bi,bj,prof_num,num_var        20        1      106        4
(PID.TID 0000.0001) bi,bj,prof_num,num_var        20        1      106        5
(PID.TID 0000.0001) bi,bj,prof_num,num_var        20        1      106        6
(PID.TID 0000.0001) buffer readvector         1       29       29      235     4420
(PID.TID 0000.0001) buffer readvector        55     1054       55      235     4420
(PID.TID 0000.0001) buffer readvector      1073     2072     1073      235     4420
(PID.TID 0000.0001) buffer readvector      2073     3072     2073      235     4420
(PID.TID 0000.0001) buffer readvector      3094     4093     3094      235     4420
(PID.TID 0000.0001) buffer readvector      4112     4420     4112      235     4420
(PID.TID 0000.0001) bi,bj,prof_num,num_var        21        1      235        1
(PID.TID 0000.0001) bi,bj,prof_num,num_var        21        1      235        2
(PID.TID 0000.0001) bi,bj,prof_num,num_var        21        1      235        3
(PID.TID 0000.0001) bi,bj,prof_num,num_var        21        1      235        4
(PID.TID 0000.0001) bi,bj,prof_num,num_var        21        1      235        5
(PID.TID 0000.0001) bi,bj,prof_num,num_var        21        1      235        6
(PID.TID 0000.0001) buffer readvector         1        5        5      212     4420
(PID.TID 0000.0001) buffer readvector        50     1049       50      212     4420
(PID.TID 0000.0001) buffer readvector      1051     2050     1051      212     4420
(PID.TID 0000.0001) buffer readvector      2067     3066     2067      212     4420
(PID.TID 0000.0001) buffer readvector      3084     4083     3084      212     4420
(PID.TID 0000.0001) buffer readvector      4087     4420     4087      212     4420
(PID.TID 0000.0001) bi,bj,prof_num,num_var        22        1      212        1
(PID.TID 0000.0001) bi,bj,prof_num,num_var        22        1      212        2
(PID.TID 0000.0001) bi,bj,prof_num,num_var        22        1      212        3
(PID.TID 0000.0001) bi,bj,prof_num,num_var        22        1      212        4
(PID.TID 0000.0001) bi,bj,prof_num,num_var        22        1      212        5
(PID.TID 0000.0001) bi,bj,prof_num,num_var        22        1      212        6
(PID.TID 0000.0001) buffer readvector         1       40       40      225     4420
(PID.TID 0000.0001) buffer readvector       119     1118      119      225     4420
(PID.TID 0000.0001) buffer readvector      1126     2125     1126      225     4420
(PID.TID 0000.0001) buffer readvector      2134     3133     2134      225     4420
(PID.TID 0000.0001) buffer readvector      3194     4193     3194      225     4420
(PID.TID 0000.0001) buffer readvector      4205     4420     4205      225     4420
(PID.TID 0000.0001) bi,bj,prof_num,num_var        23        1      225        1
(PID.TID 0000.0001) bi,bj,prof_num,num_var        23        1      225        2
(PID.TID 0000.0001) bi,bj,prof_num,num_var        23        1      225        3
(PID.TID 0000.0001) bi,bj,prof_num,num_var        23        1      225        4
(PID.TID 0000.0001) bi,bj,prof_num,num_var        23        1      225        5
(PID.TID 0000.0001) bi,bj,prof_num,num_var        23        1      225        6
(PID.TID 0000.0001) buffer readvector         1       13       13      213     4420
(PID.TID 0000.0001) buffer readvector        17     1016       17      213     4420
(PID.TID 0000.0001) buffer readvector      1022     2021     1022      213     4420
(PID.TID 0000.0001) buffer readvector      2022     3021     2022      213     4420
(PID.TID 0000.0001) buffer readvector      3032     4031     3032      213     4420
(PID.TID 0000.0001) buffer readvector      4040     4420     4040      213     4420
(PID.TID 0000.0001) bi,bj,prof_num,num_var        24        1      213        1
(PID.TID 0000.0001) bi,bj,prof_num,num_var        24        1      213        2
(PID.TID 0000.0001) bi,bj,prof_num,num_var        24        1      213        3
(PID.TID 0000.0001) bi,bj,prof_num,num_var        24        1      213        4
(PID.TID 0000.0001) bi,bj,prof_num,num_var        24        1      213        5
(PID.TID 0000.0001) bi,bj,prof_num,num_var        24        1      213        6
 --> f_ice     = 0.000000000000000D+00
 --> f_smrarea = 0.000000000000000D+00
 --> f_smrarea = 0.000000000000000D+00
 --> f_smrarea = 0.000000000000000D+00
 --> f_temp    = 0.365003560610292D+05
 --> f_salt    = 0.247660881979084D+05
 --> f_temp0   = 0.999999955296517D-04
 --> f_salt0   = 0.000000000000000D+00
 --> f_temp0smoo = 0.000000000000000D+00
 --> f_salt0smoo = 0.000000000000000D+00
 --> f_etan0   = 0.000000000000000D+00
 --> f_uvel0   = 0.000000000000000D+00
 --> f_vvel0   = 0.000000000000000D+00
 --> f_sst     = 0.000000000000000D+00
 --> f_tmi     = 0.000000000000000D+00
 --> f_sss     = 0.000000000000000D+00
 --> f_bp      = 0.000000000000000D+00
 --> f_ies      = 0.000000000000000D+00
 --> f_ssh       = 0.000000000000000D+00
 --> f_tp        = 0.000000000000000D+00
 --> f_ers       = 0.000000000000000D+00
 --> f_gfo       = 0.000000000000000D+00
 --> f_tauu    = 0.000000000000000D+00
 --> f_tauum   = 0.000000000000000D+00
 --> f_tauusmoo = 0.000000000000000D+00
 --> f_tauv    = 0.000000000000000D+00
 --> f_tauvm   = 0.000000000000000D+00
 --> f_tauvsmoo = 0.000000000000000D+00
 --> f_hflux   = 0.000000000000000D+00
 --> f_hfluxmm = 0.000000000000000D+00
 --> f_hfluxsmoo = 0.000000000000000D+00
 --> f_sflux   = 0.000000000000000D+00
 --> f_sfluxmm = 0.000000000000000D+00
 --> f_sfluxsmoo = 0.000000000000000D+00
 --> f_uwind     = 0.000000000000000D+00
 --> f_vwind     = 0.000000000000000D+00
 --> f_atemp     = 0.000000000000000D+00
 --> f_aqh     = 0.000000000000000D+00
 --> f_precip  = 0.000000000000000D+00
 --> f_swflux  = 0.000000000000000D+00
 --> f_swdown  = 0.000000000000000D+00
 --> f_uwindm     = 0.000000000000000D+00
 --> f_vwindm     = 0.000000000000000D+00
 --> f_atempm     = 0.000000000000000D+00
 --> f_aqhm     = 0.000000000000000D+00
 --> f_precipm  = 0.000000000000000D+00
 --> f_swfluxm  = 0.000000000000000D+00
 --> f_swdownm  = 0.000000000000000D+00
 --> f_uwindsmoo     = 0.000000000000000D+00
 --> f_vwindsmoo     = 0.000000000000000D+00
 --> f_atempsmoo     = 0.000000000000000D+00
 --> f_aqhsmoo     = 0.000000000000000D+00
 --> f_precipsmoo  = 0.000000000000000D+00
 --> f_swfluxsmoo  = 0.000000000000000D+00
 --> f_swdownsmoo  = 0.000000000000000D+00
 --> f_atl     = 0.000000000000000D+00
 --> f_ctdt    = 0.000000000000000D+00
 --> f_ctds    = 0.000000000000000D+00
 --> f_ctdtclim= 0.000000000000000D+00
 --> f_ctdsclim= 0.000000000000000D+00
 --> f_xbt     = 0.000000000000000D+00
 --> f_argot   = 0.000000000000000D+00
 --> f_argos   = 0.000000000000000D+00
 --> f_drifter   = 0.000000000000000D+00
 --> f_tdrift  = 0.000000000000000D+00
 --> f_sdrift  = 0.000000000000000D+00
 --> f_wdrift  = 0.000000000000000D+00
 --> f_scatx   = 0.000000000000000D+00
 --> f_scaty   = 0.000000000000000D+00
 --> f_scatxm  = 0.000000000000000D+00
 --> f_scatym  = 0.000000000000000D+00
 --> f_obcsn   = 0.000000000000000D+00
 --> f_obcss   = 0.000000000000000D+00
 --> f_obcsw   = 0.000000000000000D+00
 --> f_obcse   = 0.000000000000000D+00
 --> f_ageos   = 0.000000000000000D+00
 --> f_curmtr  = 0.000000000000000D+00
 --> f_kapgm   = 0.000000000000000D+00
 --> f_kapredi   = 0.000000000000000D+00
 --> f_diffkr  = 0.000000000000000D+00
 --> f_eddytau = 0.000000000000000D+00
 --> f_bottomdrag = 0.000000000000000D+00
 --> f_profiles = 0.134974095879077D+04 1 1
 --> f_profiles = 0.229260626545572D+05 1 2
 --> f_profiles = 0.000000000000000D+00 1 3
 --> f_profiles = 0.000000000000000D+00 1 4
 --> f_profiles = 0.000000000000000D+00 1 5
 --> f_profiles = 0.000000000000000D+00 1 6
 --> f_hfluxmm2           = 0.000000000000000D+00
 --> f_sfluxmm2           = 0.000000000000000D+00
 --> f_transp             = 0.000000000000000D+00
 --> objf_hmean           = 0.000000000000000D+00
 --> fc               = 0.000000000000000D+00
  early fc =  0.000000000000000D+00
 --> objf_test(bi,bj)   =  0.000000000000000D+00
 --> objf_tracer(bi,bj) =  0.000000000000000D+00
 --> objf_atl(bi,bj)    =  0.000000000000000D+00
 --> objf_test(bi,bj)   =  0.000000000000000D+00
 --> objf_tracer(bi,bj) =  0.000000000000000D+00
 --> objf_atl(bi,bj)    =  0.000000000000000D+00
 --> objf_test(bi,bj)   =  0.000000000000000D+00
 --> objf_tracer(bi,bj) =  0.000000000000000D+00
 --> objf_atl(bi,bj)    =  0.000000000000000D+00
 --> objf_test(bi,bj)   =  0.000000000000000D+00
 --> objf_tracer(bi,bj) =  0.000000000000000D+00
 --> objf_atl(bi,bj)    =  0.000000000000000D+00
 --> objf_test(bi,bj)   =  0.000000000000000D+00
 --> objf_tracer(bi,bj) =  0.000000000000000D+00
 --> objf_atl(bi,bj)    =  0.000000000000000D+00
 --> objf_test(bi,bj)   =  0.000000000000000D+00
 --> objf_tracer(bi,bj) =  0.000000000000000D+00
 --> objf_atl(bi,bj)    =  0.000000000000000D+00
 --> objf_test(bi,bj)   =  0.000000000000000D+00
 --> objf_tracer(bi,bj) =  0.000000000000000D+00
 --> objf_atl(bi,bj)    =  0.000000000000000D+00
 --> objf_test(bi,bj)   =  0.000000000000000D+00
 --> objf_tracer(bi,bj) =  0.000000000000000D+00
 --> objf_atl(bi,bj)    =  0.000000000000000D+00
 --> objf_test(bi,bj)   =  0.000000000000000D+00
 --> objf_tracer(bi,bj) =  0.000000000000000D+00
 --> objf_atl(bi,bj)    =  0.000000000000000D+00
 --> objf_test(bi,bj)   =  0.000000000000000D+00
 --> objf_tracer(bi,bj) =  0.000000000000000D+00
 --> objf_atl(bi,bj)    =  0.000000000000000D+00
 --> objf_test(bi,bj)   =  0.000000000000000D+00
 --> objf_tracer(bi,bj) =  0.000000000000000D+00
 --> objf_atl(bi,bj)    =  0.000000000000000D+00
 --> objf_test(bi,bj)   =  0.000000000000000D+00
 --> objf_tracer(bi,bj) =  0.000000000000000D+00
 --> objf_atl(bi,bj)    =  0.000000000000000D+00
 --> objf_test(bi,bj)   =  0.000000000000000D+00
 --> objf_tracer(bi,bj) =  0.000000000000000D+00
 --> objf_atl(bi,bj)    =  0.000000000000000D+00
 --> objf_test(bi,bj)   =  0.000000000000000D+00
 --> objf_tracer(bi,bj) =  0.000000000000000D+00
 --> objf_atl(bi,bj)    =  0.000000000000000D+00
 --> objf_test(bi,bj)   =  0.000000000000000D+00
 --> objf_tracer(bi,bj) =  0.000000000000000D+00
 --> objf_atl(bi,bj)    =  0.000000000000000D+00
 --> objf_test(bi,bj)   =  0.000000000000000D+00
 --> objf_tracer(bi,bj) =  0.000000000000000D+00
 --> objf_atl(bi,bj)    =  0.000000000000000D+00
 --> objf_test(bi,bj)   =  0.000000000000000D+00
 --> objf_tracer(bi,bj) =  0.000000000000000D+00
 --> objf_atl(bi,bj)    =  0.000000000000000D+00
 --> objf_test(bi,bj)   =  0.000000000000000D+00
 --> objf_tracer(bi,bj) =  0.000000000000000D+00
 --> objf_atl(bi,bj)    =  0.000000000000000D+00
 --> objf_test(bi,bj)   =  0.000000000000000D+00
 --> objf_tracer(bi,bj) =  0.000000000000000D+00
 --> objf_atl(bi,bj)    =  0.000000000000000D+00
 --> objf_test(bi,bj)   =  0.000000000000000D+00
 --> objf_tracer(bi,bj) =  0.000000000000000D+00
 --> objf_atl(bi,bj)    =  0.000000000000000D+00
 --> objf_test(bi,bj)   =  0.000000000000000D+00
 --> objf_tracer(bi,bj) =  0.000000000000000D+00
 --> objf_atl(bi,bj)    =  0.000000000000000D+00
 --> objf_test(bi,bj)   =  0.000000000000000D+00
 --> objf_tracer(bi,bj) =  0.000000000000000D+00
 --> objf_atl(bi,bj)    =  0.000000000000000D+00
 --> objf_test(bi,bj)   =  0.000000000000000D+00
 --> objf_tracer(bi,bj) =  0.000000000000000D+00
 --> objf_atl(bi,bj)    =  0.000000000000000D+00
 --> objf_test(bi,bj)   =  0.000000000000000D+00
 --> objf_tracer(bi,bj) =  0.000000000000000D+00
 --> objf_atl(bi,bj)    =  0.000000000000000D+00
  local fc =  0.242758037133480D+05
 global fc =  0.242758037133480D+05
(PID.TID 0000.0001) grdchk perturb(+)fc: fcpertplus  =  2.42758037133480E+04
(PID.TID 0000.0001) Start initial hydrostatic pressure computation
(PID.TID 0000.0001) Pressure is predetermined for buoyancyRelation OCEANIC
(PID.TID 0000.0001) 
(PID.TID 0000.0001) // =======================================================
(PID.TID 0000.0001) // Model current state
(PID.TID 0000.0001) // =======================================================
(PID.TID 0000.0001) 
(PID.TID 0000.0001) SOLVE_FOR_PRESSURE: putPmEinXvector =    F
 cg2d: Sum(rhs),rhsMax =   7.73551084252190E-01  6.80494402305481E+00
 cg2d: Sum(rhs),rhsMax =   1.52697383701960E+00  8.23373653116158E+00
 cg2d: Sum(rhs),rhsMax =   2.27601815099725E+00  7.98039283365510E+00
 cg2d: Sum(rhs),rhsMax =   3.02165682429751E+00  7.75066850204448E+00
 cg2d: Sum(rhs),rhsMax =   3.74608658465780E+00  7.66158157125198E+00
 cg2d: Sum(rhs),rhsMax =   4.45761535361817E+00  7.62173353191785E+00
 cg2d: Sum(rhs),rhsMax =   5.15911146489262E+00  7.59748648805807E+00
 cg2d: Sum(rhs),rhsMax =   5.85339216143257E+00  7.57707686876725E+00
(PID.TID 0000.0001) Did not write pickup because writePickupAtEnd = FALSE
(PID.TID 0000.0001) ph-cost call cost_theta0
(PID.TID 0000.0001) ph-cost call cost_salt0
(PID.TID 0000.0001) ph-cost call cost_theta
(PID.TID 0000.0001) ph-cost call cost_salt
(PID.TID 0000.0001) buffer readvector         1       11       11      237     4420
(PID.TID 0000.0001) buffer readvector        19     1018       19      237     4420
(PID.TID 0000.0001) buffer readvector      1036     2035     1036      237     4420
(PID.TID 0000.0001) buffer readvector      2037     3036     2037      237     4420
(PID.TID 0000.0001) buffer readvector      3045     4044     3045      237     4420
(PID.TID 0000.0001) buffer readvector      4050     4420     4050      237     4420
(PID.TID 0000.0001) bi,bj,prof_num,num_var         1        1      237        1
(PID.TID 0000.0001) bi,bj,prof_num,num_var         1        1      237        2
(PID.TID 0000.0001) bi,bj,prof_num,num_var         1        1      237        3
(PID.TID 0000.0001) bi,bj,prof_num,num_var         1        1      237        4
(PID.TID 0000.0001) bi,bj,prof_num,num_var         1        1      237        5
(PID.TID 0000.0001) bi,bj,prof_num,num_var         1        1      237        6
(PID.TID 0000.0001) buffer readvector         1       34       34      152     4420
(PID.TID 0000.0001) buffer readvector        42     1041       42      152     4420
(PID.TID 0000.0001) buffer readvector      1095     2094     1095      152     4420
(PID.TID 0000.0001) buffer readvector      2111     3110     2111      152     4420
(PID.TID 0000.0001) buffer readvector      3148     4147     3148      152     4420
(PID.TID 0000.0001) buffer readvector      4162     4420     4162      152     4420
(PID.TID 0000.0001) bi,bj,prof_num,num_var         2        1      152        1
(PID.TID 0000.0001) bi,bj,prof_num,num_var         2        1      152        2
(PID.TID 0000.0001) bi,bj,prof_num,num_var         2        1      152        3
(PID.TID 0000.0001) bi,bj,prof_num,num_var         2        1      152        4
(PID.TID 0000.0001) bi,bj,prof_num,num_var         2        1      152        5
(PID.TID 0000.0001) bi,bj,prof_num,num_var         2        1      152        6
(PID.TID 0000.0001) buffer readvector         1        8        8      205     4420
(PID.TID 0000.0001) buffer readvector        24     1023       24      205     4420
(PID.TID 0000.0001) buffer readvector      1027     2026     1027      205     4420
(PID.TID 0000.0001) buffer readvector      2031     3030     2031      205     4420
(PID.TID 0000.0001) buffer readvector      3066     4065     3066      205     4420
(PID.TID 0000.0001) buffer readvector      4066     4420     4066      205     4420
(PID.TID 0000.0001) bi,bj,prof_num,num_var         3        1      205        1
(PID.TID 0000.0001) bi,bj,prof_num,num_var         3        1      205        2
(PID.TID 0000.0001) bi,bj,prof_num,num_var         3        1      205        3
(PID.TID 0000.0001) bi,bj,prof_num,num_var         3        1      205        4
(PID.TID 0000.0001) bi,bj,prof_num,num_var         3        1      205        5
(PID.TID 0000.0001) bi,bj,prof_num,num_var         3        1      205        6
(PID.TID 0000.0001) buffer readvector         1        7        7       45     4420
(PID.TID 0000.0001) buffer readvector       150     1149      150       45     4420
(PID.TID 0000.0001) buffer readvector      1233     2232     1233       45     4420
(PID.TID 0000.0001) buffer readvector      2437     3436     2437       45     4420
(PID.TID 0000.0001) buffer readvector      3684     4420     3684       45     4420
(PID.TID 0000.0001) bi,bj,prof_num,num_var         4        1       45        1
(PID.TID 0000.0001) bi,bj,prof_num,num_var         4        1       45        2
(PID.TID 0000.0001) bi,bj,prof_num,num_var         4        1       45        3
(PID.TID 0000.0001) bi,bj,prof_num,num_var         4        1       45        4
(PID.TID 0000.0001) bi,bj,prof_num,num_var         4        1       45        5
(PID.TID 0000.0001) bi,bj,prof_num,num_var         4        1       45        6
(PID.TID 0000.0001) buffer readvector         1        3        3      250     4420
(PID.TID 0000.0001) buffer readvector        12     1011       12      250     4420
(PID.TID 0000.0001) buffer readvector      1031     2030     1031      250     4420
(PID.TID 0000.0001) buffer readvector      2091     3090     2091      250     4420
(PID.TID 0000.0001) buffer readvector      3108     4107     3108      250     4420
(PID.TID 0000.0001) buffer readvector      4121     4420     4121      250     4420
(PID.TID 0000.0001) bi,bj,prof_num,num_var         5        1      250        1
(PID.TID 0000.0001) bi,bj,prof_num,num_var         5        1      250        2
(PID.TID 0000.0001) bi,bj,prof_num,num_var         5        1      250        3
(PID.TID 0000.0001) bi,bj,prof_num,num_var         5        1      250        4
(PID.TID 0000.0001) bi,bj,prof_num,num_var         5        1      250        5
(PID.TID 0000.0001) bi,bj,prof_num,num_var         5        1      250        6
(PID.TID 0000.0001) buffer readvector         1       10       10      192     4420
(PID.TID 0000.0001) buffer readvector        38     1037       38      192     4420
(PID.TID 0000.0001) buffer readvector      1047     2046     1047      192     4420
(PID.TID 0000.0001) buffer readvector      2049     3048     2049      192     4420
(PID.TID 0000.0001) buffer readvector      3104     4103     3104      192     4420
(PID.TID 0000.0001) buffer readvector      4109     4420     4109      192     4420
(PID.TID 0000.0001) bi,bj,prof_num,num_var         6        1      192        1
(PID.TID 0000.0001) bi,bj,prof_num,num_var         6        1      192        2
(PID.TID 0000.0001) bi,bj,prof_num,num_var         6        1      192        3
(PID.TID 0000.0001) bi,bj,prof_num,num_var         6        1      192        4
(PID.TID 0000.0001) bi,bj,prof_num,num_var         6        1      192        5
(PID.TID 0000.0001) bi,bj,prof_num,num_var         6        1      192        6
(PID.TID 0000.0001) buffer readvector         1        4        4      108     4420
(PID.TID 0000.0001) buffer readvector        20     1019       20      108     4420
(PID.TID 0000.0001) buffer readvector      1075     2074     1075      108     4420
(PID.TID 0000.0001) buffer readvector      2143     3142     2143      108     4420
(PID.TID 0000.0001) buffer readvector      3165     4164     3165      108     4420
(PID.TID 0000.0001) buffer readvector      4201     4420     4201      108     4420
(PID.TID 0000.0001) bi,bj,prof_num,num_var         7        1      108        1
(PID.TID 0000.0001) bi,bj,prof_num,num_var         7        1      108        2
(PID.TID 0000.0001) bi,bj,prof_num,num_var         7        1      108        3
(PID.TID 0000.0001) bi,bj,prof_num,num_var         7        1      108        4
(PID.TID 0000.0001) bi,bj,prof_num,num_var         7        1      108        5
(PID.TID 0000.0001) bi,bj,prof_num,num_var         7        1      108        6
(PID.TID 0000.0001) buffer readvector         1       22       22      146     4420
(PID.TID 0000.0001) buffer readvector        53     1052       53      146     4420
(PID.TID 0000.0001) buffer readvector      1080     2079     1080      146     4420
(PID.TID 0000.0001) buffer readvector      2105     3104     2105      146     4420
(PID.TID 0000.0001) buffer readvector      3120     4119     3120      146     4420
(PID.TID 0000.0001) buffer readvector      4122     4420     4122      146     4420
(PID.TID 0000.0001) bi,bj,prof_num,num_var         8        1      146        1
(PID.TID 0000.0001) bi,bj,prof_num,num_var         8        1      146        2
(PID.TID 0000.0001) bi,bj,prof_num,num_var         8        1      146        3
(PID.TID 0000.0001) bi,bj,prof_num,num_var         8        1      146        4
(PID.TID 0000.0001) bi,bj,prof_num,num_var         8        1      146        5
(PID.TID 0000.0001) bi,bj,prof_num,num_var         8        1      146        6
(PID.TID 0000.0001) buffer readvector         1       93       93       55     4420
(PID.TID 0000.0001) buffer readvector       123     1122      123       55     4420
(PID.TID 0000.0001) buffer readvector      1148     2147     1148       55     4420
(PID.TID 0000.0001) buffer readvector      2174     3173     2174       55     4420
(PID.TID 0000.0001) buffer readvector      3177     4176     3177       55     4420
(PID.TID 0000.0001) buffer readvector      4244     4420     4244       55     4420
(PID.TID 0000.0001) bi,bj,prof_num,num_var         9        1       55        1
(PID.TID 0000.0001) bi,bj,prof_num,num_var         9        1       55        2
(PID.TID 0000.0001) bi,bj,prof_num,num_var         9        1       55        3
(PID.TID 0000.0001) bi,bj,prof_num,num_var         9        1       55        4
(PID.TID 0000.0001) bi,bj,prof_num,num_var         9        1       55        5
(PID.TID 0000.0001) bi,bj,prof_num,num_var         9        1       55        6
(PID.TID 0000.0001) buffer readvector         1       52       52      111     4420
(PID.TID 0000.0001) buffer readvector        90     1089       90      111     4420
(PID.TID 0000.0001) buffer readvector      1099     2098     1099      111     4420
(PID.TID 0000.0001) buffer readvector      2122     3121     2122      111     4420
(PID.TID 0000.0001) buffer readvector      3167     4166     3167      111     4420
(PID.TID 0000.0001) buffer readvector      4214     4420     4214      111     4420
(PID.TID 0000.0001) bi,bj,prof_num,num_var        10        1      111        1
(PID.TID 0000.0001) bi,bj,prof_num,num_var        10        1      111        2
(PID.TID 0000.0001) bi,bj,prof_num,num_var        10        1      111        3
(PID.TID 0000.0001) bi,bj,prof_num,num_var        10        1      111        4
(PID.TID 0000.0001) bi,bj,prof_num,num_var        10        1      111        5
(PID.TID 0000.0001) bi,bj,prof_num,num_var        10        1      111        6
(PID.TID 0000.0001) buffer readvector         1       43       43      185     4420
(PID.TID 0000.0001) buffer readvector        48     1047       48      185     4420
(PID.TID 0000.0001) buffer readvector      1062     2061     1062      185     4420
(PID.TID 0000.0001) buffer readvector      2114     3113     2114      185     4420
(PID.TID 0000.0001) buffer readvector      3126     4125     3126      185     4420
(PID.TID 0000.0001) buffer readvector      4163     4420     4163      185     4420
(PID.TID 0000.0001) bi,bj,prof_num,num_var        11        1      185        1
(PID.TID 0000.0001) bi,bj,prof_num,num_var        11        1      185        2
(PID.TID 0000.0001) bi,bj,prof_num,num_var        11        1      185        3
(PID.TID 0000.0001) bi,bj,prof_num,num_var        11        1      185        4
(PID.TID 0000.0001) bi,bj,prof_num,num_var        11        1      185        5
(PID.TID 0000.0001) bi,bj,prof_num,num_var        11        1      185        6
(PID.TID 0000.0001) buffer readvector         1       23       23      152     4420
(PID.TID 0000.0001) buffer readvector        25     1024       25      152     4420
(PID.TID 0000.0001) buffer readvector      1064     2063     1064      152     4420
(PID.TID 0000.0001) buffer readvector      2093     3092     2093      152     4420
(PID.TID 0000.0001) buffer readvector      3105     4104     3105      152     4420
(PID.TID 0000.0001) buffer readvector      4127     4420     4127      152     4420
(PID.TID 0000.0001) bi,bj,prof_num,num_var        12        1      152        1
(PID.TID 0000.0001) bi,bj,prof_num,num_var        12        1      152        2
(PID.TID 0000.0001) bi,bj,prof_num,num_var        12        1      152        3
(PID.TID 0000.0001) bi,bj,prof_num,num_var        12        1      152        4
(PID.TID 0000.0001) bi,bj,prof_num,num_var        12        1      152        5
(PID.TID 0000.0001) bi,bj,prof_num,num_var        12        1      152        6
(PID.TID 0000.0001) buffer readvector         1        1        1      253     4420
(PID.TID 0000.0001) buffer readvector         2     1001        2      253     4420
(PID.TID 0000.0001) buffer readvector      1016     2015     1016      253     4420
(PID.TID 0000.0001) buffer readvector      2028     3027     2028      253     4420
(PID.TID 0000.0001) buffer readvector      3038     4037     3038      253     4420
(PID.TID 0000.0001) buffer readvector      4045     4420     4045      253     4420
(PID.TID 0000.0001) bi,bj,prof_num,num_var        13        1      253        1
(PID.TID 0000.0001) bi,bj,prof_num,num_var        13        1      253        2
(PID.TID 0000.0001) bi,bj,prof_num,num_var        13        1      253        3
(PID.TID 0000.0001) bi,bj,prof_num,num_var        13        1      253        4
(PID.TID 0000.0001) bi,bj,prof_num,num_var        13        1      253        5
(PID.TID 0000.0001) bi,bj,prof_num,num_var        13        1      253        6
(PID.TID 0000.0001) buffer readvector         1       65       65      187     4420
(PID.TID 0000.0001) buffer readvector        84     1083       84      187     4420
(PID.TID 0000.0001) buffer readvector      1088     2087     1088      187     4420
(PID.TID 0000.0001) buffer readvector      2090     3089     2090      187     4420
(PID.TID 0000.0001) buffer readvector      3099     4098     3099      187     4420
(PID.TID 0000.0001) buffer readvector      4104     4420     4104      187     4420
(PID.TID 0000.0001) bi,bj,prof_num,num_var        14        1      187        1
(PID.TID 0000.0001) bi,bj,prof_num,num_var        14        1      187        2
(PID.TID 0000.0001) bi,bj,prof_num,num_var        14        1      187        3
(PID.TID 0000.0001) bi,bj,prof_num,num_var        14        1      187        4
(PID.TID 0000.0001) bi,bj,prof_num,num_var        14        1      187        5
(PID.TID 0000.0001) bi,bj,prof_num,num_var        14        1      187        6
(PID.TID 0000.0001) buffer readvector         1       27       27      256     4420
(PID.TID 0000.0001) buffer readvector        28     1027       28      256     4420
(PID.TID 0000.0001) buffer readvector      1038     2037     1038      256     4420
(PID.TID 0000.0001) buffer readvector      2047     3046     2047      256     4420
(PID.TID 0000.0001) buffer readvector      3057     4056     3057      256     4420
(PID.TID 0000.0001) buffer readvector      4059     4420     4059      256     4420
(PID.TID 0000.0001) bi,bj,prof_num,num_var        15        1      256        1
(PID.TID 0000.0001) bi,bj,prof_num,num_var        15        1      256        2
(PID.TID 0000.0001) bi,bj,prof_num,num_var        15        1      256        3
(PID.TID 0000.0001) bi,bj,prof_num,num_var        15        1      256        4
(PID.TID 0000.0001) bi,bj,prof_num,num_var        15        1      256        5
(PID.TID 0000.0001) bi,bj,prof_num,num_var        15        1      256        6
(PID.TID 0000.0001) buffer readvector         1        9        9      257     4420
(PID.TID 0000.0001) buffer readvector        88     1087       88      257     4420
(PID.TID 0000.0001) buffer readvector      1121     2120     1121      257     4420
(PID.TID 0000.0001) buffer readvector      2133     3132     2133      257     4420
(PID.TID 0000.0001) buffer readvector      3155     4154     3155      257     4420
(PID.TID 0000.0001) buffer readvector      4199     4420     4199      257     4420
(PID.TID 0000.0001) bi,bj,prof_num,num_var        16        1      257        1
(PID.TID 0000.0001) bi,bj,prof_num,num_var        16        1      257        2
(PID.TID 0000.0001) bi,bj,prof_num,num_var        16        1      257        3
(PID.TID 0000.0001) bi,bj,prof_num,num_var        16        1      257        4
(PID.TID 0000.0001) bi,bj,prof_num,num_var        16        1      257        5
(PID.TID 0000.0001) bi,bj,prof_num,num_var        16        1      257        6
(PID.TID 0000.0001) buffer readvector         1       15       15      188     4420
(PID.TID 0000.0001) buffer readvector        54     1053       54      188     4420
(PID.TID 0000.0001) buffer readvector      1092     2091     1092      188     4420
(PID.TID 0000.0001) buffer readvector      2103     3102     2103      188     4420
(PID.TID 0000.0001) buffer readvector      3209     4208     3209      188     4420
(PID.TID 0000.0001) buffer readvector      4242     4420     4242      188     4420
(PID.TID 0000.0001) bi,bj,prof_num,num_var        17        1      188        1
(PID.TID 0000.0001) bi,bj,prof_num,num_var        17        1      188        2
(PID.TID 0000.0001) bi,bj,prof_num,num_var        17        1      188        3
(PID.TID 0000.0001) bi,bj,prof_num,num_var        17        1      188        4
(PID.TID 0000.0001) bi,bj,prof_num,num_var        17        1      188        5
(PID.TID 0000.0001) bi,bj,prof_num,num_var        17        1      188        6
(PID.TID 0000.0001) buffer readvector         1        6        6      256     4420
(PID.TID 0000.0001) buffer readvector        21     1020       21      256     4420
(PID.TID 0000.0001) buffer readvector      1034     2033     1034      256     4420
(PID.TID 0000.0001) buffer readvector      2040     3039     2040      256     4420
(PID.TID 0000.0001) buffer readvector      3055     4054     3055      256     4420
(PID.TID 0000.0001) buffer readvector      4088     4420     4088      256     4420
(PID.TID 0000.0001) bi,bj,prof_num,num_var        18        1      256        1
(PID.TID 0000.0001) bi,bj,prof_num,num_var        18        1      256        2
(PID.TID 0000.0001) bi,bj,prof_num,num_var        18        1      256        3
(PID.TID 0000.0001) bi,bj,prof_num,num_var        18        1      256        4
(PID.TID 0000.0001) bi,bj,prof_num,num_var        18        1      256        5
(PID.TID 0000.0001) bi,bj,prof_num,num_var        18        1      256        6
(PID.TID 0000.0001) buffer readvector         1       49       49      194     4420
(PID.TID 0000.0001) buffer readvector        63     1062       63      194     4420
(PID.TID 0000.0001) buffer readvector      1091     2090     1091      194     4420
(PID.TID 0000.0001) buffer readvector      2129     3128     2129      194     4420
(PID.TID 0000.0001) buffer readvector      3207     4206     3207      194     4420
(PID.TID 0000.0001) buffer readvector      4216     4420     4216      194     4420
(PID.TID 0000.0001) bi,bj,prof_num,num_var        19        1      194        1
(PID.TID 0000.0001) bi,bj,prof_num,num_var        19        1      194        2
(PID.TID 0000.0001) bi,bj,prof_num,num_var        19        1      194        3
(PID.TID 0000.0001) bi,bj,prof_num,num_var        19        1      194        4
(PID.TID 0000.0001) bi,bj,prof_num,num_var        19        1      194        5
(PID.TID 0000.0001) bi,bj,prof_num,num_var        19        1      194        6
(PID.TID 0000.0001) buffer readvector         1      104      104      106     4420
(PID.TID 0000.0001) buffer readvector       111     1110      111      106     4420
(PID.TID 0000.0001) buffer readvector      1166     2165     1166      106     4420
(PID.TID 0000.0001) buffer readvector      2167     3166     2167      106     4420
(PID.TID 0000.0001) buffer readvector      3184     4183     3184      106     4420
(PID.TID 0000.0001) buffer readvector      4269     4420     4269      106     4420
(PID.TID 0000.0001) bi,bj,prof_num,num_var        20        1      106        1
(PID.TID 0000.0001) bi,bj,prof_num,num_var        20        1      106        2
(PID.TID 0000.0001) bi,bj,prof_num,num_var        20        1      106        3
(PID.TID 0000.0001) bi,bj,prof_num,num_var        20        1      106        4
(PID.TID 0000.0001) bi,bj,prof_num,num_var        20        1      106        5
(PID.TID 0000.0001) bi,bj,prof_num,num_var        20        1      106        6
(PID.TID 0000.0001) buffer readvector         1       29       29      235     4420
(PID.TID 0000.0001) buffer readvector        55     1054       55      235     4420
(PID.TID 0000.0001) buffer readvector      1073     2072     1073      235     4420
(PID.TID 0000.0001) buffer readvector      2073     3072     2073      235     4420
(PID.TID 0000.0001) buffer readvector      3094     4093     3094      235     4420
(PID.TID 0000.0001) buffer readvector      4112     4420     4112      235     4420
(PID.TID 0000.0001) bi,bj,prof_num,num_var        21        1      235        1
(PID.TID 0000.0001) bi,bj,prof_num,num_var        21        1      235        2
(PID.TID 0000.0001) bi,bj,prof_num,num_var        21        1      235        3
(PID.TID 0000.0001) bi,bj,prof_num,num_var        21        1      235        4
(PID.TID 0000.0001) bi,bj,prof_num,num_var        21        1      235        5
(PID.TID 0000.0001) bi,bj,prof_num,num_var        21        1      235        6
(PID.TID 0000.0001) buffer readvector         1        5        5      212     4420
(PID.TID 0000.0001) buffer readvector        50     1049       50      212     4420
(PID.TID 0000.0001) buffer readvector      1051     2050     1051      212     4420
(PID.TID 0000.0001) buffer readvector      2067     3066     2067      212     4420
(PID.TID 0000.0001) buffer readvector      3084     4083     3084      212     4420
(PID.TID 0000.0001) buffer readvector      4087     4420     4087      212     4420
(PID.TID 0000.0001) bi,bj,prof_num,num_var        22        1      212        1
(PID.TID 0000.0001) bi,bj,prof_num,num_var        22        1      212        2
(PID.TID 0000.0001) bi,bj,prof_num,num_var        22        1      212        3
(PID.TID 0000.0001) bi,bj,prof_num,num_var        22        1      212        4
(PID.TID 0000.0001) bi,bj,prof_num,num_var        22        1      212        5
(PID.TID 0000.0001) bi,bj,prof_num,num_var        22        1      212        6
(PID.TID 0000.0001) buffer readvector         1       40       40      225     4420
(PID.TID 0000.0001) buffer readvector       119     1118      119      225     4420
(PID.TID 0000.0001) buffer readvector      1126     2125     1126      225     4420
(PID.TID 0000.0001) buffer readvector      2134     3133     2134      225     4420
(PID.TID 0000.0001) buffer readvector      3194     4193     3194      225     4420
(PID.TID 0000.0001) buffer readvector      4205     4420     4205      225     4420
(PID.TID 0000.0001) bi,bj,prof_num,num_var        23        1      225        1
(PID.TID 0000.0001) bi,bj,prof_num,num_var        23        1      225        2
(PID.TID 0000.0001) bi,bj,prof_num,num_var        23        1      225        3
(PID.TID 0000.0001) bi,bj,prof_num,num_var        23        1      225        4
(PID.TID 0000.0001) bi,bj,prof_num,num_var        23        1      225        5
(PID.TID 0000.0001) bi,bj,prof_num,num_var        23        1      225        6
(PID.TID 0000.0001) buffer readvector         1       13       13      213     4420
(PID.TID 0000.0001) buffer readvector        17     1016       17      213     4420
(PID.TID 0000.0001) buffer readvector      1022     2021     1022      213     4420
(PID.TID 0000.0001) buffer readvector      2022     3021     2022      213     4420
(PID.TID 0000.0001) buffer readvector      3032     4031     3032      213     4420
(PID.TID 0000.0001) buffer readvector      4040     4420     4040      213     4420
(PID.TID 0000.0001) bi,bj,prof_num,num_var        24        1      213        1
(PID.TID 0000.0001) bi,bj,prof_num,num_var        24        1      213        2
(PID.TID 0000.0001) bi,bj,prof_num,num_var        24        1      213        3
(PID.TID 0000.0001) bi,bj,prof_num,num_var        24        1      213        4
(PID.TID 0000.0001) bi,bj,prof_num,num_var        24        1      213        5
(PID.TID 0000.0001) bi,bj,prof_num,num_var        24        1      213        6
 --> f_ice     = 0.000000000000000D+00
 --> f_smrarea = 0.000000000000000D+00
 --> f_smrarea = 0.000000000000000D+00
 --> f_smrarea = 0.000000000000000D+00
 --> f_temp    = 0.365003486405542D+05
 --> f_salt    = 0.247660882834853D+05
 --> f_temp0   = 0.999999955296517D-04
 --> f_salt0   = 0.000000000000000D+00
 --> f_temp0smoo = 0.000000000000000D+00
 --> f_salt0smoo = 0.000000000000000D+00
 --> f_etan0   = 0.000000000000000D+00
 --> f_uvel0   = 0.000000000000000D+00
 --> f_vvel0   = 0.000000000000000D+00
 --> f_sst     = 0.000000000000000D+00
 --> f_tmi     = 0.000000000000000D+00
 --> f_sss     = 0.000000000000000D+00
 --> f_bp      = 0.000000000000000D+00
 --> f_ies      = 0.000000000000000D+00
 --> f_ssh       = 0.000000000000000D+00
 --> f_tp        = 0.000000000000000D+00
 --> f_ers       = 0.000000000000000D+00
 --> f_gfo       = 0.000000000000000D+00
 --> f_tauu    = 0.000000000000000D+00
 --> f_tauum   = 0.000000000000000D+00
 --> f_tauusmoo = 0.000000000000000D+00
 --> f_tauv    = 0.000000000000000D+00
 --> f_tauvm   = 0.000000000000000D+00
 --> f_tauvsmoo = 0.000000000000000D+00
 --> f_hflux   = 0.000000000000000D+00
 --> f_hfluxmm = 0.000000000000000D+00
 --> f_hfluxsmoo = 0.000000000000000D+00
 --> f_sflux   = 0.000000000000000D+00
 --> f_sfluxmm = 0.000000000000000D+00
 --> f_sfluxsmoo = 0.000000000000000D+00
 --> f_uwind     = 0.000000000000000D+00
 --> f_vwind     = 0.000000000000000D+00
 --> f_atemp     = 0.000000000000000D+00
 --> f_aqh     = 0.000000000000000D+00
 --> f_precip  = 0.000000000000000D+00
 --> f_swflux  = 0.000000000000000D+00
 --> f_swdown  = 0.000000000000000D+00
 --> f_uwindm     = 0.000000000000000D+00
 --> f_vwindm     = 0.000000000000000D+00
 --> f_atempm     = 0.000000000000000D+00
 --> f_aqhm     = 0.000000000000000D+00
 --> f_precipm  = 0.000000000000000D+00
 --> f_swfluxm  = 0.000000000000000D+00
 --> f_swdownm  = 0.000000000000000D+00
 --> f_uwindsmoo     = 0.000000000000000D+00
 --> f_vwindsmoo     = 0.000000000000000D+00
 --> f_atempsmoo     = 0.000000000000000D+00
 --> f_aqhsmoo     = 0.000000000000000D+00
 --> f_precipsmoo  = 0.000000000000000D+00
 --> f_swfluxsmoo  = 0.000000000000000D+00
 --> f_swdownsmoo  = 0.000000000000000D+00
 --> f_atl     = 0.000000000000000D+00
 --> f_ctdt    = 0.000000000000000D+00
 --> f_ctds    = 0.000000000000000D+00
 --> f_ctdtclim= 0.000000000000000D+00
 --> f_ctdsclim= 0.000000000000000D+00
 --> f_xbt     = 0.000000000000000D+00
 --> f_argot   = 0.000000000000000D+00
 --> f_argos   = 0.000000000000000D+00
 --> f_drifter   = 0.000000000000000D+00
 --> f_tdrift  = 0.000000000000000D+00
 --> f_sdrift  = 0.000000000000000D+00
 --> f_wdrift  = 0.000000000000000D+00
 --> f_scatx   = 0.000000000000000D+00
 --> f_scaty   = 0.000000000000000D+00
 --> f_scatxm  = 0.000000000000000D+00
 --> f_scatym  = 0.000000000000000D+00
 --> f_obcsn   = 0.000000000000000D+00
 --> f_obcss   = 0.000000000000000D+00
 --> f_obcsw   = 0.000000000000000D+00
 --> f_obcse   = 0.000000000000000D+00
 --> f_ageos   = 0.000000000000000D+00
 --> f_curmtr  = 0.000000000000000D+00
 --> f_kapgm   = 0.000000000000000D+00
 --> f_kapredi   = 0.000000000000000D+00
 --> f_diffkr  = 0.000000000000000D+00
 --> f_eddytau = 0.000000000000000D+00
 --> f_bottomdrag = 0.000000000000000D+00
 --> f_profiles = 0.134973097566696D+04 1 1
 --> f_profiles = 0.229260626420473D+05 1 2
 --> f_profiles = 0.000000000000000D+00 1 3
 --> f_profiles = 0.000000000000000D+00 1 4
 --> f_profiles = 0.000000000000000D+00 1 5
 --> f_profiles = 0.000000000000000D+00 1 6
 --> f_hfluxmm2           = 0.000000000000000D+00
 --> f_sfluxmm2           = 0.000000000000000D+00
 --> f_transp             = 0.000000000000000D+00
 --> objf_hmean           = 0.000000000000000D+00
 --> fc               = 0.000000000000000D+00
  early fc =  0.000000000000000D+00
 --> objf_test(bi,bj)   =  0.000000000000000D+00
 --> objf_tracer(bi,bj) =  0.000000000000000D+00
 --> objf_atl(bi,bj)    =  0.000000000000000D+00
 --> objf_test(bi,bj)   =  0.000000000000000D+00
 --> objf_tracer(bi,bj) =  0.000000000000000D+00
 --> objf_atl(bi,bj)    =  0.000000000000000D+00
 --> objf_test(bi,bj)   =  0.000000000000000D+00
 --> objf_tracer(bi,bj) =  0.000000000000000D+00
 --> objf_atl(bi,bj)    =  0.000000000000000D+00
 --> objf_test(bi,bj)   =  0.000000000000000D+00
 --> objf_tracer(bi,bj) =  0.000000000000000D+00
 --> objf_atl(bi,bj)    =  0.000000000000000D+00
 --> objf_test(bi,bj)   =  0.000000000000000D+00
 --> objf_tracer(bi,bj) =  0.000000000000000D+00
 --> objf_atl(bi,bj)    =  0.000000000000000D+00
 --> objf_test(bi,bj)   =  0.000000000000000D+00
 --> objf_tracer(bi,bj) =  0.000000000000000D+00
 --> objf_atl(bi,bj)    =  0.000000000000000D+00
 --> objf_test(bi,bj)   =  0.000000000000000D+00
 --> objf_tracer(bi,bj) =  0.000000000000000D+00
 --> objf_atl(bi,bj)    =  0.000000000000000D+00
 --> objf_test(bi,bj)   =  0.000000000000000D+00
 --> objf_tracer(bi,bj) =  0.000000000000000D+00
 --> objf_atl(bi,bj)    =  0.000000000000000D+00
 --> objf_test(bi,bj)   =  0.000000000000000D+00
 --> objf_tracer(bi,bj) =  0.000000000000000D+00
 --> objf_atl(bi,bj)    =  0.000000000000000D+00
 --> objf_test(bi,bj)   =  0.000000000000000D+00
 --> objf_tracer(bi,bj) =  0.000000000000000D+00
 --> objf_atl(bi,bj)    =  0.000000000000000D+00
 --> objf_test(bi,bj)   =  0.000000000000000D+00
 --> objf_tracer(bi,bj) =  0.000000000000000D+00
 --> objf_atl(bi,bj)    =  0.000000000000000D+00
 --> objf_test(bi,bj)   =  0.000000000000000D+00
 --> objf_tracer(bi,bj) =  0.000000000000000D+00
 --> objf_atl(bi,bj)    =  0.000000000000000D+00
 --> objf_test(bi,bj)   =  0.000000000000000D+00
 --> objf_tracer(bi,bj) =  0.000000000000000D+00
 --> objf_atl(bi,bj)    =  0.000000000000000D+00
 --> objf_test(bi,bj)   =  0.000000000000000D+00
 --> objf_tracer(bi,bj) =  0.000000000000000D+00
 --> objf_atl(bi,bj)    =  0.000000000000000D+00
 --> objf_test(bi,bj)   =  0.000000000000000D+00
 --> objf_tracer(bi,bj) =  0.000000000000000D+00
 --> objf_atl(bi,bj)    =  0.000000000000000D+00
 --> objf_test(bi,bj)   =  0.000000000000000D+00
 --> objf_tracer(bi,bj) =  0.000000000000000D+00
 --> objf_atl(bi,bj)    =  0.000000000000000D+00
 --> objf_test(bi,bj)   =  0.000000000000000D+00
 --> objf_tracer(bi,bj) =  0.000000000000000D+00
 --> objf_atl(bi,bj)    =  0.000000000000000D+00
 --> objf_test(bi,bj)   =  0.000000000000000D+00
 --> objf_tracer(bi,bj) =  0.000000000000000D+00
 --> objf_atl(bi,bj)    =  0.000000000000000D+00
 --> objf_test(bi,bj)   =  0.000000000000000D+00
 --> objf_tracer(bi,bj) =  0.000000000000000D+00
 --> objf_atl(bi,bj)    =  0.000000000000000D+00
 --> objf_test(bi,bj)   =  0.000000000000000D+00
 --> objf_tracer(bi,bj) =  0.000000000000000D+00
 --> objf_atl(bi,bj)    =  0.000000000000000D+00
 --> objf_test(bi,bj)   =  0.000000000000000D+00
 --> objf_tracer(bi,bj) =  0.000000000000000D+00
 --> objf_atl(bi,bj)    =  0.000000000000000D+00
 --> objf_test(bi,bj)   =  0.000000000000000D+00
 --> objf_tracer(bi,bj) =  0.000000000000000D+00
 --> objf_atl(bi,bj)    =  0.000000000000000D+00
 --> objf_test(bi,bj)   =  0.000000000000000D+00
 --> objf_tracer(bi,bj) =  0.000000000000000D+00
 --> objf_atl(bi,bj)    =  0.000000000000000D+00
 --> objf_test(bi,bj)   =  0.000000000000000D+00
 --> objf_tracer(bi,bj) =  0.000000000000000D+00
 --> objf_atl(bi,bj)    =  0.000000000000000D+00
  local fc =  0.242757937177143D+05
 global fc =  0.242757937177143D+05
(PID.TID 0000.0001) grdchk perturb(-)fc: fcpertminus =  2.42757937177143E+04
grad-res -------------------------------
 grad-res     0    3    3    1    1    1    1    1   2.42757986140E+04  2.42758037133E+04  2.42757937177E+04
 grad-res     0    3    3    3    0    1    1    1   4.99130040407E-01  4.99781685903E-01 -1.30556256528E-03
(PID.TID 0000.0001)  ADM  ref_cost_function      =  2.42757986140463E+04
(PID.TID 0000.0001)  ADM  adjoint_gradient       =  4.99130040407181E-01
(PID.TID 0000.0001)  ADM  finite-diff_grad       =  4.99781685903145E-01
(PID.TID 0000.0001) ====== End of gradient-check number   3 (ierr=  0) =======
(PID.TID 0000.0001) ====== Starts gradient-check number   4 (=ichknum) =======
 ph-test icomp, ncvarcomp, ichknum            4      185786           4
 ph-grd _loc: bi, bj, icomptest, ichknum            1           1           3           4
 ph-grd -->hit<--            4           1           1           1
(PID.TID 0000.0001) grdchk pos: i,j,k=    4    1    1 ; bi,bj=   1   1 ; iobc=  1 ; rec=   1
(PID.TID 0000.0001) Start initial hydrostatic pressure computation
(PID.TID 0000.0001) Pressure is predetermined for buoyancyRelation OCEANIC
(PID.TID 0000.0001) 
(PID.TID 0000.0001) // =======================================================
(PID.TID 0000.0001) // Model current state
(PID.TID 0000.0001) // =======================================================
(PID.TID 0000.0001) 
(PID.TID 0000.0001) SOLVE_FOR_PRESSURE: putPmEinXvector =    F
 cg2d: Sum(rhs),rhsMax =   7.73551084252198E-01  6.80494402338570E+00
 cg2d: Sum(rhs),rhsMax =   1.52697331646023E+00  8.23373653197580E+00
 cg2d: Sum(rhs),rhsMax =   2.27601687012366E+00  7.98039283477821E+00
 cg2d: Sum(rhs),rhsMax =   3.02165503960393E+00  7.75066850348887E+00
 cg2d: Sum(rhs),rhsMax =   3.74608429342715E+00  7.66158157300788E+00
 cg2d: Sum(rhs),rhsMax =   4.45761256168535E+00  7.62173353398153E+00
 cg2d: Sum(rhs),rhsMax =   5.15910817616873E+00  7.59748649042486E+00
 cg2d: Sum(rhs),rhsMax =   5.85338837799202E+00  7.57707687143169E+00
(PID.TID 0000.0001) Did not write pickup because writePickupAtEnd = FALSE
(PID.TID 0000.0001) ph-cost call cost_theta0
(PID.TID 0000.0001) ph-cost call cost_salt0
(PID.TID 0000.0001) ph-cost call cost_theta
(PID.TID 0000.0001) ph-cost call cost_salt
(PID.TID 0000.0001) buffer readvector         1       11       11      237     4420
(PID.TID 0000.0001) buffer readvector        19     1018       19      237     4420
(PID.TID 0000.0001) buffer readvector      1036     2035     1036      237     4420
(PID.TID 0000.0001) buffer readvector      2037     3036     2037      237     4420
(PID.TID 0000.0001) buffer readvector      3045     4044     3045      237     4420
(PID.TID 0000.0001) buffer readvector      4050     4420     4050      237     4420
(PID.TID 0000.0001) bi,bj,prof_num,num_var         1        1      237        1
(PID.TID 0000.0001) bi,bj,prof_num,num_var         1        1      237        2
(PID.TID 0000.0001) bi,bj,prof_num,num_var         1        1      237        3
(PID.TID 0000.0001) bi,bj,prof_num,num_var         1        1      237        4
(PID.TID 0000.0001) bi,bj,prof_num,num_var         1        1      237        5
(PID.TID 0000.0001) bi,bj,prof_num,num_var         1        1      237        6
(PID.TID 0000.0001) buffer readvector         1       34       34      152     4420
(PID.TID 0000.0001) buffer readvector        42     1041       42      152     4420
(PID.TID 0000.0001) buffer readvector      1095     2094     1095      152     4420
(PID.TID 0000.0001) buffer readvector      2111     3110     2111      152     4420
(PID.TID 0000.0001) buffer readvector      3148     4147     3148      152     4420
(PID.TID 0000.0001) buffer readvector      4162     4420     4162      152     4420
(PID.TID 0000.0001) bi,bj,prof_num,num_var         2        1      152        1
(PID.TID 0000.0001) bi,bj,prof_num,num_var         2        1      152        2
(PID.TID 0000.0001) bi,bj,prof_num,num_var         2        1      152        3
(PID.TID 0000.0001) bi,bj,prof_num,num_var         2        1      152        4
(PID.TID 0000.0001) bi,bj,prof_num,num_var         2        1      152        5
(PID.TID 0000.0001) bi,bj,prof_num,num_var         2        1      152        6
(PID.TID 0000.0001) buffer readvector         1        8        8      205     4420
(PID.TID 0000.0001) buffer readvector        24     1023       24      205     4420
(PID.TID 0000.0001) buffer readvector      1027     2026     1027      205     4420
(PID.TID 0000.0001) buffer readvector      2031     3030     2031      205     4420
(PID.TID 0000.0001) buffer readvector      3066     4065     3066      205     4420
(PID.TID 0000.0001) buffer readvector      4066     4420     4066      205     4420
(PID.TID 0000.0001) bi,bj,prof_num,num_var         3        1      205        1
(PID.TID 0000.0001) bi,bj,prof_num,num_var         3        1      205        2
(PID.TID 0000.0001) bi,bj,prof_num,num_var         3        1      205        3
(PID.TID 0000.0001) bi,bj,prof_num,num_var         3        1      205        4
(PID.TID 0000.0001) bi,bj,prof_num,num_var         3        1      205        5
(PID.TID 0000.0001) bi,bj,prof_num,num_var         3        1      205        6
(PID.TID 0000.0001) buffer readvector         1        7        7       45     4420
(PID.TID 0000.0001) buffer readvector       150     1149      150       45     4420
(PID.TID 0000.0001) buffer readvector      1233     2232     1233       45     4420
(PID.TID 0000.0001) buffer readvector      2437     3436     2437       45     4420
(PID.TID 0000.0001) buffer readvector      3684     4420     3684       45     4420
(PID.TID 0000.0001) bi,bj,prof_num,num_var         4        1       45        1
(PID.TID 0000.0001) bi,bj,prof_num,num_var         4        1       45        2
(PID.TID 0000.0001) bi,bj,prof_num,num_var         4        1       45        3
(PID.TID 0000.0001) bi,bj,prof_num,num_var         4        1       45        4
(PID.TID 0000.0001) bi,bj,prof_num,num_var         4        1       45        5
(PID.TID 0000.0001) bi,bj,prof_num,num_var         4        1       45        6
(PID.TID 0000.0001) buffer readvector         1        3        3      250     4420
(PID.TID 0000.0001) buffer readvector        12     1011       12      250     4420
(PID.TID 0000.0001) buffer readvector      1031     2030     1031      250     4420
(PID.TID 0000.0001) buffer readvector      2091     3090     2091      250     4420
(PID.TID 0000.0001) buffer readvector      3108     4107     3108      250     4420
(PID.TID 0000.0001) buffer readvector      4121     4420     4121      250     4420
(PID.TID 0000.0001) bi,bj,prof_num,num_var         5        1      250        1
(PID.TID 0000.0001) bi,bj,prof_num,num_var         5        1      250        2
(PID.TID 0000.0001) bi,bj,prof_num,num_var         5        1      250        3
(PID.TID 0000.0001) bi,bj,prof_num,num_var         5        1      250        4
(PID.TID 0000.0001) bi,bj,prof_num,num_var         5        1      250        5
(PID.TID 0000.0001) bi,bj,prof_num,num_var         5        1      250        6
(PID.TID 0000.0001) buffer readvector         1       10       10      192     4420
(PID.TID 0000.0001) buffer readvector        38     1037       38      192     4420
(PID.TID 0000.0001) buffer readvector      1047     2046     1047      192     4420
(PID.TID 0000.0001) buffer readvector      2049     3048     2049      192     4420
(PID.TID 0000.0001) buffer readvector      3104     4103     3104      192     4420
(PID.TID 0000.0001) buffer readvector      4109     4420     4109      192     4420
(PID.TID 0000.0001) bi,bj,prof_num,num_var         6        1      192        1
(PID.TID 0000.0001) bi,bj,prof_num,num_var         6        1      192        2
(PID.TID 0000.0001) bi,bj,prof_num,num_var         6        1      192        3
(PID.TID 0000.0001) bi,bj,prof_num,num_var         6        1      192        4
(PID.TID 0000.0001) bi,bj,prof_num,num_var         6        1      192        5
(PID.TID 0000.0001) bi,bj,prof_num,num_var         6        1      192        6
(PID.TID 0000.0001) buffer readvector         1        4        4      108     4420
(PID.TID 0000.0001) buffer readvector        20     1019       20      108     4420
(PID.TID 0000.0001) buffer readvector      1075     2074     1075      108     4420
(PID.TID 0000.0001) buffer readvector      2143     3142     2143      108     4420
(PID.TID 0000.0001) buffer readvector      3165     4164     3165      108     4420
(PID.TID 0000.0001) buffer readvector      4201     4420     4201      108     4420
(PID.TID 0000.0001) bi,bj,prof_num,num_var         7        1      108        1
(PID.TID 0000.0001) bi,bj,prof_num,num_var         7        1      108        2
(PID.TID 0000.0001) bi,bj,prof_num,num_var         7        1      108        3
(PID.TID 0000.0001) bi,bj,prof_num,num_var         7        1      108        4
(PID.TID 0000.0001) bi,bj,prof_num,num_var         7        1      108        5
(PID.TID 0000.0001) bi,bj,prof_num,num_var         7        1      108        6
(PID.TID 0000.0001) buffer readvector         1       22       22      146     4420
(PID.TID 0000.0001) buffer readvector        53     1052       53      146     4420
(PID.TID 0000.0001) buffer readvector      1080     2079     1080      146     4420
(PID.TID 0000.0001) buffer readvector      2105     3104     2105      146     4420
(PID.TID 0000.0001) buffer readvector      3120     4119     3120      146     4420
(PID.TID 0000.0001) buffer readvector      4122     4420     4122      146     4420
(PID.TID 0000.0001) bi,bj,prof_num,num_var         8        1      146        1
(PID.TID 0000.0001) bi,bj,prof_num,num_var         8        1      146        2
(PID.TID 0000.0001) bi,bj,prof_num,num_var         8        1      146        3
(PID.TID 0000.0001) bi,bj,prof_num,num_var         8        1      146        4
(PID.TID 0000.0001) bi,bj,prof_num,num_var         8        1      146        5
(PID.TID 0000.0001) bi,bj,prof_num,num_var         8        1      146        6
(PID.TID 0000.0001) buffer readvector         1       93       93       55     4420
(PID.TID 0000.0001) buffer readvector       123     1122      123       55     4420
(PID.TID 0000.0001) buffer readvector      1148     2147     1148       55     4420
(PID.TID 0000.0001) buffer readvector      2174     3173     2174       55     4420
(PID.TID 0000.0001) buffer readvector      3177     4176     3177       55     4420
(PID.TID 0000.0001) buffer readvector      4244     4420     4244       55     4420
(PID.TID 0000.0001) bi,bj,prof_num,num_var         9        1       55        1
(PID.TID 0000.0001) bi,bj,prof_num,num_var         9        1       55        2
(PID.TID 0000.0001) bi,bj,prof_num,num_var         9        1       55        3
(PID.TID 0000.0001) bi,bj,prof_num,num_var         9        1       55        4
(PID.TID 0000.0001) bi,bj,prof_num,num_var         9        1       55        5
(PID.TID 0000.0001) bi,bj,prof_num,num_var         9        1       55        6
(PID.TID 0000.0001) buffer readvector         1       52       52      111     4420
(PID.TID 0000.0001) buffer readvector        90     1089       90      111     4420
(PID.TID 0000.0001) buffer readvector      1099     2098     1099      111     4420
(PID.TID 0000.0001) buffer readvector      2122     3121     2122      111     4420
(PID.TID 0000.0001) buffer readvector      3167     4166     3167      111     4420
(PID.TID 0000.0001) buffer readvector      4214     4420     4214      111     4420
(PID.TID 0000.0001) bi,bj,prof_num,num_var        10        1      111        1
(PID.TID 0000.0001) bi,bj,prof_num,num_var        10        1      111        2
(PID.TID 0000.0001) bi,bj,prof_num,num_var        10        1      111        3
(PID.TID 0000.0001) bi,bj,prof_num,num_var        10        1      111        4
(PID.TID 0000.0001) bi,bj,prof_num,num_var        10        1      111        5
(PID.TID 0000.0001) bi,bj,prof_num,num_var        10        1      111        6
(PID.TID 0000.0001) buffer readvector         1       43       43      185     4420
(PID.TID 0000.0001) buffer readvector        48     1047       48      185     4420
(PID.TID 0000.0001) buffer readvector      1062     2061     1062      185     4420
(PID.TID 0000.0001) buffer readvector      2114     3113     2114      185     4420
(PID.TID 0000.0001) buffer readvector      3126     4125     3126      185     4420
(PID.TID 0000.0001) buffer readvector      4163     4420     4163      185     4420
(PID.TID 0000.0001) bi,bj,prof_num,num_var        11        1      185        1
(PID.TID 0000.0001) bi,bj,prof_num,num_var        11        1      185        2
(PID.TID 0000.0001) bi,bj,prof_num,num_var        11        1      185        3
(PID.TID 0000.0001) bi,bj,prof_num,num_var        11        1      185        4
(PID.TID 0000.0001) bi,bj,prof_num,num_var        11        1      185        5
(PID.TID 0000.0001) bi,bj,prof_num,num_var        11        1      185        6
(PID.TID 0000.0001) buffer readvector         1       23       23      152     4420
(PID.TID 0000.0001) buffer readvector        25     1024       25      152     4420
(PID.TID 0000.0001) buffer readvector      1064     2063     1064      152     4420
(PID.TID 0000.0001) buffer readvector      2093     3092     2093      152     4420
(PID.TID 0000.0001) buffer readvector      3105     4104     3105      152     4420
(PID.TID 0000.0001) buffer readvector      4127     4420     4127      152     4420
(PID.TID 0000.0001) bi,bj,prof_num,num_var        12        1      152        1
(PID.TID 0000.0001) bi,bj,prof_num,num_var        12        1      152        2
(PID.TID 0000.0001) bi,bj,prof_num,num_var        12        1      152        3
(PID.TID 0000.0001) bi,bj,prof_num,num_var        12        1      152        4
(PID.TID 0000.0001) bi,bj,prof_num,num_var        12        1      152        5
(PID.TID 0000.0001) bi,bj,prof_num,num_var        12        1      152        6
(PID.TID 0000.0001) buffer readvector         1        1        1      253     4420
(PID.TID 0000.0001) buffer readvector         2     1001        2      253     4420
(PID.TID 0000.0001) buffer readvector      1016     2015     1016      253     4420
(PID.TID 0000.0001) buffer readvector      2028     3027     2028      253     4420
(PID.TID 0000.0001) buffer readvector      3038     4037     3038      253     4420
(PID.TID 0000.0001) buffer readvector      4045     4420     4045      253     4420
(PID.TID 0000.0001) bi,bj,prof_num,num_var        13        1      253        1
(PID.TID 0000.0001) bi,bj,prof_num,num_var        13        1      253        2
(PID.TID 0000.0001) bi,bj,prof_num,num_var        13        1      253        3
(PID.TID 0000.0001) bi,bj,prof_num,num_var        13        1      253        4
(PID.TID 0000.0001) bi,bj,prof_num,num_var        13        1      253        5
(PID.TID 0000.0001) bi,bj,prof_num,num_var        13        1      253        6
(PID.TID 0000.0001) buffer readvector         1       65       65      187     4420
(PID.TID 0000.0001) buffer readvector        84     1083       84      187     4420
(PID.TID 0000.0001) buffer readvector      1088     2087     1088      187     4420
(PID.TID 0000.0001) buffer readvector      2090     3089     2090      187     4420
(PID.TID 0000.0001) buffer readvector      3099     4098     3099      187     4420
(PID.TID 0000.0001) buffer readvector      4104     4420     4104      187     4420
(PID.TID 0000.0001) bi,bj,prof_num,num_var        14        1      187        1
(PID.TID 0000.0001) bi,bj,prof_num,num_var        14        1      187        2
(PID.TID 0000.0001) bi,bj,prof_num,num_var        14        1      187        3
(PID.TID 0000.0001) bi,bj,prof_num,num_var        14        1      187        4
(PID.TID 0000.0001) bi,bj,prof_num,num_var        14        1      187        5
(PID.TID 0000.0001) bi,bj,prof_num,num_var        14        1      187        6
(PID.TID 0000.0001) buffer readvector         1       27       27      256     4420
(PID.TID 0000.0001) buffer readvector        28     1027       28      256     4420
(PID.TID 0000.0001) buffer readvector      1038     2037     1038      256     4420
(PID.TID 0000.0001) buffer readvector      2047     3046     2047      256     4420
(PID.TID 0000.0001) buffer readvector      3057     4056     3057      256     4420
(PID.TID 0000.0001) buffer readvector      4059     4420     4059      256     4420
(PID.TID 0000.0001) bi,bj,prof_num,num_var        15        1      256        1
(PID.TID 0000.0001) bi,bj,prof_num,num_var        15        1      256        2
(PID.TID 0000.0001) bi,bj,prof_num,num_var        15        1      256        3
(PID.TID 0000.0001) bi,bj,prof_num,num_var        15        1      256        4
(PID.TID 0000.0001) bi,bj,prof_num,num_var        15        1      256        5
(PID.TID 0000.0001) bi,bj,prof_num,num_var        15        1      256        6
(PID.TID 0000.0001) buffer readvector         1        9        9      257     4420
(PID.TID 0000.0001) buffer readvector        88     1087       88      257     4420
(PID.TID 0000.0001) buffer readvector      1121     2120     1121      257     4420
(PID.TID 0000.0001) buffer readvector      2133     3132     2133      257     4420
(PID.TID 0000.0001) buffer readvector      3155     4154     3155      257     4420
(PID.TID 0000.0001) buffer readvector      4199     4420     4199      257     4420
(PID.TID 0000.0001) bi,bj,prof_num,num_var        16        1      257        1
(PID.TID 0000.0001) bi,bj,prof_num,num_var        16        1      257        2
(PID.TID 0000.0001) bi,bj,prof_num,num_var        16        1      257        3
(PID.TID 0000.0001) bi,bj,prof_num,num_var        16        1      257        4
(PID.TID 0000.0001) bi,bj,prof_num,num_var        16        1      257        5
(PID.TID 0000.0001) bi,bj,prof_num,num_var        16        1      257        6
(PID.TID 0000.0001) buffer readvector         1       15       15      188     4420
(PID.TID 0000.0001) buffer readvector        54     1053       54      188     4420
(PID.TID 0000.0001) buffer readvector      1092     2091     1092      188     4420
(PID.TID 0000.0001) buffer readvector      2103     3102     2103      188     4420
(PID.TID 0000.0001) buffer readvector      3209     4208     3209      188     4420
(PID.TID 0000.0001) buffer readvector      4242     4420     4242      188     4420
(PID.TID 0000.0001) bi,bj,prof_num,num_var        17        1      188        1
(PID.TID 0000.0001) bi,bj,prof_num,num_var        17        1      188        2
(PID.TID 0000.0001) bi,bj,prof_num,num_var        17        1      188        3
(PID.TID 0000.0001) bi,bj,prof_num,num_var        17        1      188        4
(PID.TID 0000.0001) bi,bj,prof_num,num_var        17        1      188        5
(PID.TID 0000.0001) bi,bj,prof_num,num_var        17        1      188        6
(PID.TID 0000.0001) buffer readvector         1        6        6      256     4420
(PID.TID 0000.0001) buffer readvector        21     1020       21      256     4420
(PID.TID 0000.0001) buffer readvector      1034     2033     1034      256     4420
(PID.TID 0000.0001) buffer readvector      2040     3039     2040      256     4420
(PID.TID 0000.0001) buffer readvector      3055     4054     3055      256     4420
(PID.TID 0000.0001) buffer readvector      4088     4420     4088      256     4420
(PID.TID 0000.0001) bi,bj,prof_num,num_var        18        1      256        1
(PID.TID 0000.0001) bi,bj,prof_num,num_var        18        1      256        2
(PID.TID 0000.0001) bi,bj,prof_num,num_var        18        1      256        3
(PID.TID 0000.0001) bi,bj,prof_num,num_var        18        1      256        4
(PID.TID 0000.0001) bi,bj,prof_num,num_var        18        1      256        5
(PID.TID 0000.0001) bi,bj,prof_num,num_var        18        1      256        6
(PID.TID 0000.0001) buffer readvector         1       49       49      194     4420
(PID.TID 0000.0001) buffer readvector        63     1062       63      194     4420
(PID.TID 0000.0001) buffer readvector      1091     2090     1091      194     4420
(PID.TID 0000.0001) buffer readvector      2129     3128     2129      194     4420
(PID.TID 0000.0001) buffer readvector      3207     4206     3207      194     4420
(PID.TID 0000.0001) buffer readvector      4216     4420     4216      194     4420
(PID.TID 0000.0001) bi,bj,prof_num,num_var        19        1      194        1
(PID.TID 0000.0001) bi,bj,prof_num,num_var        19        1      194        2
(PID.TID 0000.0001) bi,bj,prof_num,num_var        19        1      194        3
(PID.TID 0000.0001) bi,bj,prof_num,num_var        19        1      194        4
(PID.TID 0000.0001) bi,bj,prof_num,num_var        19        1      194        5
(PID.TID 0000.0001) bi,bj,prof_num,num_var        19        1      194        6
(PID.TID 0000.0001) buffer readvector         1      104      104      106     4420
(PID.TID 0000.0001) buffer readvector       111     1110      111      106     4420
(PID.TID 0000.0001) buffer readvector      1166     2165     1166      106     4420
(PID.TID 0000.0001) buffer readvector      2167     3166     2167      106     4420
(PID.TID 0000.0001) buffer readvector      3184     4183     3184      106     4420
(PID.TID 0000.0001) buffer readvector      4269     4420     4269      106     4420
(PID.TID 0000.0001) bi,bj,prof_num,num_var        20        1      106        1
(PID.TID 0000.0001) bi,bj,prof_num,num_var        20        1      106        2
(PID.TID 0000.0001) bi,bj,prof_num,num_var        20        1      106        3
(PID.TID 0000.0001) bi,bj,prof_num,num_var        20        1      106        4
(PID.TID 0000.0001) bi,bj,prof_num,num_var        20        1      106        5
(PID.TID 0000.0001) bi,bj,prof_num,num_var        20        1      106        6
(PID.TID 0000.0001) buffer readvector         1       29       29      235     4420
(PID.TID 0000.0001) buffer readvector        55     1054       55      235     4420
(PID.TID 0000.0001) buffer readvector      1073     2072     1073      235     4420
(PID.TID 0000.0001) buffer readvector      2073     3072     2073      235     4420
(PID.TID 0000.0001) buffer readvector      3094     4093     3094      235     4420
(PID.TID 0000.0001) buffer readvector      4112     4420     4112      235     4420
(PID.TID 0000.0001) bi,bj,prof_num,num_var        21        1      235        1
(PID.TID 0000.0001) bi,bj,prof_num,num_var        21        1      235        2
(PID.TID 0000.0001) bi,bj,prof_num,num_var        21        1      235        3
(PID.TID 0000.0001) bi,bj,prof_num,num_var        21        1      235        4
(PID.TID 0000.0001) bi,bj,prof_num,num_var        21        1      235        5
(PID.TID 0000.0001) bi,bj,prof_num,num_var        21        1      235        6
(PID.TID 0000.0001) buffer readvector         1        5        5      212     4420
(PID.TID 0000.0001) buffer readvector        50     1049       50      212     4420
(PID.TID 0000.0001) buffer readvector      1051     2050     1051      212     4420
(PID.TID 0000.0001) buffer readvector      2067     3066     2067      212     4420
(PID.TID 0000.0001) buffer readvector      3084     4083     3084      212     4420
(PID.TID 0000.0001) buffer readvector      4087     4420     4087      212     4420
(PID.TID 0000.0001) bi,bj,prof_num,num_var        22        1      212        1
(PID.TID 0000.0001) bi,bj,prof_num,num_var        22        1      212        2
(PID.TID 0000.0001) bi,bj,prof_num,num_var        22        1      212        3
(PID.TID 0000.0001) bi,bj,prof_num,num_var        22        1      212        4
(PID.TID 0000.0001) bi,bj,prof_num,num_var        22        1      212        5
(PID.TID 0000.0001) bi,bj,prof_num,num_var        22        1      212        6
(PID.TID 0000.0001) buffer readvector         1       40       40      225     4420
(PID.TID 0000.0001) buffer readvector       119     1118      119      225     4420
(PID.TID 0000.0001) buffer readvector      1126     2125     1126      225     4420
(PID.TID 0000.0001) buffer readvector      2134     3133     2134      225     4420
(PID.TID 0000.0001) buffer readvector      3194     4193     3194      225     4420
(PID.TID 0000.0001) buffer readvector      4205     4420     4205      225     4420
(PID.TID 0000.0001) bi,bj,prof_num,num_var        23        1      225        1
(PID.TID 0000.0001) bi,bj,prof_num,num_var        23        1      225        2
(PID.TID 0000.0001) bi,bj,prof_num,num_var        23        1      225        3
(PID.TID 0000.0001) bi,bj,prof_num,num_var        23        1      225        4
(PID.TID 0000.0001) bi,bj,prof_num,num_var        23        1      225        5
(PID.TID 0000.0001) bi,bj,prof_num,num_var        23        1      225        6
(PID.TID 0000.0001) buffer readvector         1       13       13      213     4420
(PID.TID 0000.0001) buffer readvector        17     1016       17      213     4420
(PID.TID 0000.0001) buffer readvector      1022     2021     1022      213     4420
(PID.TID 0000.0001) buffer readvector      2022     3021     2022      213     4420
(PID.TID 0000.0001) buffer readvector      3032     4031     3032      213     4420
(PID.TID 0000.0001) buffer readvector      4040     4420     4040      213     4420
(PID.TID 0000.0001) bi,bj,prof_num,num_var        24        1      213        1
(PID.TID 0000.0001) bi,bj,prof_num,num_var        24        1      213        2
(PID.TID 0000.0001) bi,bj,prof_num,num_var        24        1      213        3
(PID.TID 0000.0001) bi,bj,prof_num,num_var        24        1      213        4
(PID.TID 0000.0001) bi,bj,prof_num,num_var        24        1      213        5
(PID.TID 0000.0001) bi,bj,prof_num,num_var        24        1      213        6
 --> f_ice     = 0.000000000000000D+00
 --> f_smrarea = 0.000000000000000D+00
 --> f_smrarea = 0.000000000000000D+00
 --> f_smrarea = 0.000000000000000D+00
 --> f_temp    = 0.365003565526908D+05
 --> f_salt    = 0.247660840408367D+05
 --> f_temp0   = 0.999999955296517D-04
 --> f_salt0   = 0.000000000000000D+00
 --> f_temp0smoo = 0.000000000000000D+00
 --> f_salt0smoo = 0.000000000000000D+00
 --> f_etan0   = 0.000000000000000D+00
 --> f_uvel0   = 0.000000000000000D+00
 --> f_vvel0   = 0.000000000000000D+00
 --> f_sst     = 0.000000000000000D+00
 --> f_tmi     = 0.000000000000000D+00
 --> f_sss     = 0.000000000000000D+00
 --> f_bp      = 0.000000000000000D+00
 --> f_ies      = 0.000000000000000D+00
 --> f_ssh       = 0.000000000000000D+00
 --> f_tp        = 0.000000000000000D+00
 --> f_ers       = 0.000000000000000D+00
 --> f_gfo       = 0.000000000000000D+00
 --> f_tauu    = 0.000000000000000D+00
 --> f_tauum   = 0.000000000000000D+00
 --> f_tauusmoo = 0.000000000000000D+00
 --> f_tauv    = 0.000000000000000D+00
 --> f_tauvm   = 0.000000000000000D+00
 --> f_tauvsmoo = 0.000000000000000D+00
 --> f_hflux   = 0.000000000000000D+00
 --> f_hfluxmm = 0.000000000000000D+00
 --> f_hfluxsmoo = 0.000000000000000D+00
 --> f_sflux   = 0.000000000000000D+00
 --> f_sfluxmm = 0.000000000000000D+00
 --> f_sfluxsmoo = 0.000000000000000D+00
 --> f_uwind     = 0.000000000000000D+00
 --> f_vwind     = 0.000000000000000D+00
 --> f_atemp     = 0.000000000000000D+00
 --> f_aqh     = 0.000000000000000D+00
 --> f_precip  = 0.000000000000000D+00
 --> f_swflux  = 0.000000000000000D+00
 --> f_swdown  = 0.000000000000000D+00
 --> f_uwindm     = 0.000000000000000D+00
 --> f_vwindm     = 0.000000000000000D+00
 --> f_atempm     = 0.000000000000000D+00
 --> f_aqhm     = 0.000000000000000D+00
 --> f_precipm  = 0.000000000000000D+00
 --> f_swfluxm  = 0.000000000000000D+00
 --> f_swdownm  = 0.000000000000000D+00
 --> f_uwindsmoo     = 0.000000000000000D+00
 --> f_vwindsmoo     = 0.000000000000000D+00
 --> f_atempsmoo     = 0.000000000000000D+00
 --> f_aqhsmoo     = 0.000000000000000D+00
 --> f_precipsmoo  = 0.000000000000000D+00
 --> f_swfluxsmoo  = 0.000000000000000D+00
 --> f_swdownsmoo  = 0.000000000000000D+00
 --> f_atl     = 0.000000000000000D+00
 --> f_ctdt    = 0.000000000000000D+00
 --> f_ctds    = 0.000000000000000D+00
 --> f_ctdtclim= 0.000000000000000D+00
 --> f_ctdsclim= 0.000000000000000D+00
 --> f_xbt     = 0.000000000000000D+00
 --> f_argot   = 0.000000000000000D+00
 --> f_argos   = 0.000000000000000D+00
 --> f_drifter   = 0.000000000000000D+00
 --> f_tdrift  = 0.000000000000000D+00
 --> f_sdrift  = 0.000000000000000D+00
 --> f_wdrift  = 0.000000000000000D+00
 --> f_scatx   = 0.000000000000000D+00
 --> f_scaty   = 0.000000000000000D+00
 --> f_scatxm  = 0.000000000000000D+00
 --> f_scatym  = 0.000000000000000D+00
 --> f_obcsn   = 0.000000000000000D+00
 --> f_obcss   = 0.000000000000000D+00
 --> f_obcsw   = 0.000000000000000D+00
 --> f_obcse   = 0.000000000000000D+00
 --> f_ageos   = 0.000000000000000D+00
 --> f_curmtr  = 0.000000000000000D+00
 --> f_kapgm   = 0.000000000000000D+00
 --> f_kapredi   = 0.000000000000000D+00
 --> f_diffkr  = 0.000000000000000D+00
 --> f_eddytau = 0.000000000000000D+00
 --> f_bottomdrag = 0.000000000000000D+00
 --> f_profiles = 0.134974002771085D+04 1 1
 --> f_profiles = 0.229260626502700D+05 1 2
 --> f_profiles = 0.000000000000000D+00 1 3
 --> f_profiles = 0.000000000000000D+00 1 4
 --> f_profiles = 0.000000000000000D+00 1 5
 --> f_profiles = 0.000000000000000D+00 1 6
 --> f_hfluxmm2           = 0.000000000000000D+00
 --> f_sfluxmm2           = 0.000000000000000D+00
 --> f_transp             = 0.000000000000000D+00
 --> objf_hmean           = 0.000000000000000D+00
 --> fc               = 0.000000000000000D+00
  early fc =  0.000000000000000D+00
 --> objf_test(bi,bj)   =  0.000000000000000D+00
 --> objf_tracer(bi,bj) =  0.000000000000000D+00
 --> objf_atl(bi,bj)    =  0.000000000000000D+00
 --> objf_test(bi,bj)   =  0.000000000000000D+00
 --> objf_tracer(bi,bj) =  0.000000000000000D+00
 --> objf_atl(bi,bj)    =  0.000000000000000D+00
 --> objf_test(bi,bj)   =  0.000000000000000D+00
 --> objf_tracer(bi,bj) =  0.000000000000000D+00
 --> objf_atl(bi,bj)    =  0.000000000000000D+00
 --> objf_test(bi,bj)   =  0.000000000000000D+00
 --> objf_tracer(bi,bj) =  0.000000000000000D+00
 --> objf_atl(bi,bj)    =  0.000000000000000D+00
 --> objf_test(bi,bj)   =  0.000000000000000D+00
 --> objf_tracer(bi,bj) =  0.000000000000000D+00
 --> objf_atl(bi,bj)    =  0.000000000000000D+00
 --> objf_test(bi,bj)   =  0.000000000000000D+00
 --> objf_tracer(bi,bj) =  0.000000000000000D+00
 --> objf_atl(bi,bj)    =  0.000000000000000D+00
 --> objf_test(bi,bj)   =  0.000000000000000D+00
 --> objf_tracer(bi,bj) =  0.000000000000000D+00
 --> objf_atl(bi,bj)    =  0.000000000000000D+00
 --> objf_test(bi,bj)   =  0.000000000000000D+00
 --> objf_tracer(bi,bj) =  0.000000000000000D+00
 --> objf_atl(bi,bj)    =  0.000000000000000D+00
 --> objf_test(bi,bj)   =  0.000000000000000D+00
 --> objf_tracer(bi,bj) =  0.000000000000000D+00
 --> objf_atl(bi,bj)    =  0.000000000000000D+00
 --> objf_test(bi,bj)   =  0.000000000000000D+00
 --> objf_tracer(bi,bj) =  0.000000000000000D+00
 --> objf_atl(bi,bj)    =  0.000000000000000D+00
 --> objf_test(bi,bj)   =  0.000000000000000D+00
 --> objf_tracer(bi,bj) =  0.000000000000000D+00
 --> objf_atl(bi,bj)    =  0.000000000000000D+00
 --> objf_test(bi,bj)   =  0.000000000000000D+00
 --> objf_tracer(bi,bj) =  0.000000000000000D+00
 --> objf_atl(bi,bj)    =  0.000000000000000D+00
 --> objf_test(bi,bj)   =  0.000000000000000D+00
 --> objf_tracer(bi,bj) =  0.000000000000000D+00
 --> objf_atl(bi,bj)    =  0.000000000000000D+00
 --> objf_test(bi,bj)   =  0.000000000000000D+00
 --> objf_tracer(bi,bj) =  0.000000000000000D+00
 --> objf_atl(bi,bj)    =  0.000000000000000D+00
 --> objf_test(bi,bj)   =  0.000000000000000D+00
 --> objf_tracer(bi,bj) =  0.000000000000000D+00
 --> objf_atl(bi,bj)    =  0.000000000000000D+00
 --> objf_test(bi,bj)   =  0.000000000000000D+00
 --> objf_tracer(bi,bj) =  0.000000000000000D+00
 --> objf_atl(bi,bj)    =  0.000000000000000D+00
 --> objf_test(bi,bj)   =  0.000000000000000D+00
 --> objf_tracer(bi,bj) =  0.000000000000000D+00
 --> objf_atl(bi,bj)    =  0.000000000000000D+00
 --> objf_test(bi,bj)   =  0.000000000000000D+00
 --> objf_tracer(bi,bj) =  0.000000000000000D+00
 --> objf_atl(bi,bj)    =  0.000000000000000D+00
 --> objf_test(bi,bj)   =  0.000000000000000D+00
 --> objf_tracer(bi,bj) =  0.000000000000000D+00
 --> objf_atl(bi,bj)    =  0.000000000000000D+00
 --> objf_test(bi,bj)   =  0.000000000000000D+00
 --> objf_tracer(bi,bj) =  0.000000000000000D+00
 --> objf_atl(bi,bj)    =  0.000000000000000D+00
 --> objf_test(bi,bj)   =  0.000000000000000D+00
 --> objf_tracer(bi,bj) =  0.000000000000000D+00
 --> objf_atl(bi,bj)    =  0.000000000000000D+00
 --> objf_test(bi,bj)   =  0.000000000000000D+00
 --> objf_tracer(bi,bj) =  0.000000000000000D+00
 --> objf_atl(bi,bj)    =  0.000000000000000D+00
 --> objf_test(bi,bj)   =  0.000000000000000D+00
 --> objf_tracer(bi,bj) =  0.000000000000000D+00
 --> objf_atl(bi,bj)    =  0.000000000000000D+00
 --> objf_test(bi,bj)   =  0.000000000000000D+00
 --> objf_tracer(bi,bj) =  0.000000000000000D+00
 --> objf_atl(bi,bj)    =  0.000000000000000D+00
  local fc =  0.242758027779809D+05
 global fc =  0.242758027779809D+05
(PID.TID 0000.0001) grdchk perturb(+)fc: fcpertplus  =  2.42758027779809E+04
(PID.TID 0000.0001) Start initial hydrostatic pressure computation
(PID.TID 0000.0001) Pressure is predetermined for buoyancyRelation OCEANIC
(PID.TID 0000.0001) 
(PID.TID 0000.0001) // =======================================================
(PID.TID 0000.0001) // Model current state
(PID.TID 0000.0001) // =======================================================
(PID.TID 0000.0001) 
(PID.TID 0000.0001) SOLVE_FOR_PRESSURE: putPmEinXvector =    F
 cg2d: Sum(rhs),rhsMax =   7.73551084252091E-01  6.80494402305354E+00
 cg2d: Sum(rhs),rhsMax =   1.52697383901824E+00  8.23373653115719E+00
 cg2d: Sum(rhs),rhsMax =   2.27601815782405E+00  7.98039283364798E+00
 cg2d: Sum(rhs),rhsMax =   3.02165683551917E+00  7.75066850203419E+00
 cg2d: Sum(rhs),rhsMax =   3.74608660163915E+00  7.66158157123761E+00
 cg2d: Sum(rhs),rhsMax =   4.45761537616832E+00  7.62173353190026E+00
 cg2d: Sum(rhs),rhsMax =   5.15911149278972E+00  7.59748648803723E+00
 cg2d: Sum(rhs),rhsMax =   5.85339219450594E+00  7.57707686874398E+00
(PID.TID 0000.0001) Did not write pickup because writePickupAtEnd = FALSE
(PID.TID 0000.0001) ph-cost call cost_theta0
(PID.TID 0000.0001) ph-cost call cost_salt0
(PID.TID 0000.0001) ph-cost call cost_theta
(PID.TID 0000.0001) ph-cost call cost_salt
(PID.TID 0000.0001) buffer readvector         1       11       11      237     4420
(PID.TID 0000.0001) buffer readvector        19     1018       19      237     4420
(PID.TID 0000.0001) buffer readvector      1036     2035     1036      237     4420
(PID.TID 0000.0001) buffer readvector      2037     3036     2037      237     4420
(PID.TID 0000.0001) buffer readvector      3045     4044     3045      237     4420
(PID.TID 0000.0001) buffer readvector      4050     4420     4050      237     4420
(PID.TID 0000.0001) bi,bj,prof_num,num_var         1        1      237        1
(PID.TID 0000.0001) bi,bj,prof_num,num_var         1        1      237        2
(PID.TID 0000.0001) bi,bj,prof_num,num_var         1        1      237        3
(PID.TID 0000.0001) bi,bj,prof_num,num_var         1        1      237        4
(PID.TID 0000.0001) bi,bj,prof_num,num_var         1        1      237        5
(PID.TID 0000.0001) bi,bj,prof_num,num_var         1        1      237        6
(PID.TID 0000.0001) buffer readvector         1       34       34      152     4420
(PID.TID 0000.0001) buffer readvector        42     1041       42      152     4420
(PID.TID 0000.0001) buffer readvector      1095     2094     1095      152     4420
(PID.TID 0000.0001) buffer readvector      2111     3110     2111      152     4420
(PID.TID 0000.0001) buffer readvector      3148     4147     3148      152     4420
(PID.TID 0000.0001) buffer readvector      4162     4420     4162      152     4420
(PID.TID 0000.0001) bi,bj,prof_num,num_var         2        1      152        1
(PID.TID 0000.0001) bi,bj,prof_num,num_var         2        1      152        2
(PID.TID 0000.0001) bi,bj,prof_num,num_var         2        1      152        3
(PID.TID 0000.0001) bi,bj,prof_num,num_var         2        1      152        4
(PID.TID 0000.0001) bi,bj,prof_num,num_var         2        1      152        5
(PID.TID 0000.0001) bi,bj,prof_num,num_var         2        1      152        6
(PID.TID 0000.0001) buffer readvector         1        8        8      205     4420
(PID.TID 0000.0001) buffer readvector        24     1023       24      205     4420
(PID.TID 0000.0001) buffer readvector      1027     2026     1027      205     4420
(PID.TID 0000.0001) buffer readvector      2031     3030     2031      205     4420
(PID.TID 0000.0001) buffer readvector      3066     4065     3066      205     4420
(PID.TID 0000.0001) buffer readvector      4066     4420     4066      205     4420
(PID.TID 0000.0001) bi,bj,prof_num,num_var         3        1      205        1
(PID.TID 0000.0001) bi,bj,prof_num,num_var         3        1      205        2
(PID.TID 0000.0001) bi,bj,prof_num,num_var         3        1      205        3
(PID.TID 0000.0001) bi,bj,prof_num,num_var         3        1      205        4
(PID.TID 0000.0001) bi,bj,prof_num,num_var         3        1      205        5
(PID.TID 0000.0001) bi,bj,prof_num,num_var         3        1      205        6
(PID.TID 0000.0001) buffer readvector         1        7        7       45     4420
(PID.TID 0000.0001) buffer readvector       150     1149      150       45     4420
(PID.TID 0000.0001) buffer readvector      1233     2232     1233       45     4420
(PID.TID 0000.0001) buffer readvector      2437     3436     2437       45     4420
(PID.TID 0000.0001) buffer readvector      3684     4420     3684       45     4420
(PID.TID 0000.0001) bi,bj,prof_num,num_var         4        1       45        1
(PID.TID 0000.0001) bi,bj,prof_num,num_var         4        1       45        2
(PID.TID 0000.0001) bi,bj,prof_num,num_var         4        1       45        3
(PID.TID 0000.0001) bi,bj,prof_num,num_var         4        1       45        4
(PID.TID 0000.0001) bi,bj,prof_num,num_var         4        1       45        5
(PID.TID 0000.0001) bi,bj,prof_num,num_var         4        1       45        6
(PID.TID 0000.0001) buffer readvector         1        3        3      250     4420
(PID.TID 0000.0001) buffer readvector        12     1011       12      250     4420
(PID.TID 0000.0001) buffer readvector      1031     2030     1031      250     4420
(PID.TID 0000.0001) buffer readvector      2091     3090     2091      250     4420
(PID.TID 0000.0001) buffer readvector      3108     4107     3108      250     4420
(PID.TID 0000.0001) buffer readvector      4121     4420     4121      250     4420
(PID.TID 0000.0001) bi,bj,prof_num,num_var         5        1      250        1
(PID.TID 0000.0001) bi,bj,prof_num,num_var         5        1      250        2
(PID.TID 0000.0001) bi,bj,prof_num,num_var         5        1      250        3
(PID.TID 0000.0001) bi,bj,prof_num,num_var         5        1      250        4
(PID.TID 0000.0001) bi,bj,prof_num,num_var         5        1      250        5
(PID.TID 0000.0001) bi,bj,prof_num,num_var         5        1      250        6
(PID.TID 0000.0001) buffer readvector         1       10       10      192     4420
(PID.TID 0000.0001) buffer readvector        38     1037       38      192     4420
(PID.TID 0000.0001) buffer readvector      1047     2046     1047      192     4420
(PID.TID 0000.0001) buffer readvector      2049     3048     2049      192     4420
(PID.TID 0000.0001) buffer readvector      3104     4103     3104      192     4420
(PID.TID 0000.0001) buffer readvector      4109     4420     4109      192     4420
(PID.TID 0000.0001) bi,bj,prof_num,num_var         6        1      192        1
(PID.TID 0000.0001) bi,bj,prof_num,num_var         6        1      192        2
(PID.TID 0000.0001) bi,bj,prof_num,num_var         6        1      192        3
(PID.TID 0000.0001) bi,bj,prof_num,num_var         6        1      192        4
(PID.TID 0000.0001) bi,bj,prof_num,num_var         6        1      192        5
(PID.TID 0000.0001) bi,bj,prof_num,num_var         6        1      192        6
(PID.TID 0000.0001) buffer readvector         1        4        4      108     4420
(PID.TID 0000.0001) buffer readvector        20     1019       20      108     4420
(PID.TID 0000.0001) buffer readvector      1075     2074     1075      108     4420
(PID.TID 0000.0001) buffer readvector      2143     3142     2143      108     4420
(PID.TID 0000.0001) buffer readvector      3165     4164     3165      108     4420
(PID.TID 0000.0001) buffer readvector      4201     4420     4201      108     4420
(PID.TID 0000.0001) bi,bj,prof_num,num_var         7        1      108        1
(PID.TID 0000.0001) bi,bj,prof_num,num_var         7        1      108        2
(PID.TID 0000.0001) bi,bj,prof_num,num_var         7        1      108        3
(PID.TID 0000.0001) bi,bj,prof_num,num_var         7        1      108        4
(PID.TID 0000.0001) bi,bj,prof_num,num_var         7        1      108        5
(PID.TID 0000.0001) bi,bj,prof_num,num_var         7        1      108        6
(PID.TID 0000.0001) buffer readvector         1       22       22      146     4420
(PID.TID 0000.0001) buffer readvector        53     1052       53      146     4420
(PID.TID 0000.0001) buffer readvector      1080     2079     1080      146     4420
(PID.TID 0000.0001) buffer readvector      2105     3104     2105      146     4420
(PID.TID 0000.0001) buffer readvector      3120     4119     3120      146     4420
(PID.TID 0000.0001) buffer readvector      4122     4420     4122      146     4420
(PID.TID 0000.0001) bi,bj,prof_num,num_var         8        1      146        1
(PID.TID 0000.0001) bi,bj,prof_num,num_var         8        1      146        2
(PID.TID 0000.0001) bi,bj,prof_num,num_var         8        1      146        3
(PID.TID 0000.0001) bi,bj,prof_num,num_var         8        1      146        4
(PID.TID 0000.0001) bi,bj,prof_num,num_var         8        1      146        5
(PID.TID 0000.0001) bi,bj,prof_num,num_var         8        1      146        6
(PID.TID 0000.0001) buffer readvector         1       93       93       55     4420
(PID.TID 0000.0001) buffer readvector       123     1122      123       55     4420
(PID.TID 0000.0001) buffer readvector      1148     2147     1148       55     4420
(PID.TID 0000.0001) buffer readvector      2174     3173     2174       55     4420
(PID.TID 0000.0001) buffer readvector      3177     4176     3177       55     4420
(PID.TID 0000.0001) buffer readvector      4244     4420     4244       55     4420
(PID.TID 0000.0001) bi,bj,prof_num,num_var         9        1       55        1
(PID.TID 0000.0001) bi,bj,prof_num,num_var         9        1       55        2
(PID.TID 0000.0001) bi,bj,prof_num,num_var         9        1       55        3
(PID.TID 0000.0001) bi,bj,prof_num,num_var         9        1       55        4
(PID.TID 0000.0001) bi,bj,prof_num,num_var         9        1       55        5
(PID.TID 0000.0001) bi,bj,prof_num,num_var         9        1       55        6
(PID.TID 0000.0001) buffer readvector         1       52       52      111     4420
(PID.TID 0000.0001) buffer readvector        90     1089       90      111     4420
(PID.TID 0000.0001) buffer readvector      1099     2098     1099      111     4420
(PID.TID 0000.0001) buffer readvector      2122     3121     2122      111     4420
(PID.TID 0000.0001) buffer readvector      3167     4166     3167      111     4420
(PID.TID 0000.0001) buffer readvector      4214     4420     4214      111     4420
(PID.TID 0000.0001) bi,bj,prof_num,num_var        10        1      111        1
(PID.TID 0000.0001) bi,bj,prof_num,num_var        10        1      111        2
(PID.TID 0000.0001) bi,bj,prof_num,num_var        10        1      111        3
(PID.TID 0000.0001) bi,bj,prof_num,num_var        10        1      111        4
(PID.TID 0000.0001) bi,bj,prof_num,num_var        10        1      111        5
(PID.TID 0000.0001) bi,bj,prof_num,num_var        10        1      111        6
(PID.TID 0000.0001) buffer readvector         1       43       43      185     4420
(PID.TID 0000.0001) buffer readvector        48     1047       48      185     4420
(PID.TID 0000.0001) buffer readvector      1062     2061     1062      185     4420
(PID.TID 0000.0001) buffer readvector      2114     3113     2114      185     4420
(PID.TID 0000.0001) buffer readvector      3126     4125     3126      185     4420
(PID.TID 0000.0001) buffer readvector      4163     4420     4163      185     4420
(PID.TID 0000.0001) bi,bj,prof_num,num_var        11        1      185        1
(PID.TID 0000.0001) bi,bj,prof_num,num_var        11        1      185        2
(PID.TID 0000.0001) bi,bj,prof_num,num_var        11        1      185        3
(PID.TID 0000.0001) bi,bj,prof_num,num_var        11        1      185        4
(PID.TID 0000.0001) bi,bj,prof_num,num_var        11        1      185        5
(PID.TID 0000.0001) bi,bj,prof_num,num_var        11        1      185        6
(PID.TID 0000.0001) buffer readvector         1       23       23      152     4420
(PID.TID 0000.0001) buffer readvector        25     1024       25      152     4420
(PID.TID 0000.0001) buffer readvector      1064     2063     1064      152     4420
(PID.TID 0000.0001) buffer readvector      2093     3092     2093      152     4420
(PID.TID 0000.0001) buffer readvector      3105     4104     3105      152     4420
(PID.TID 0000.0001) buffer readvector      4127     4420     4127      152     4420
(PID.TID 0000.0001) bi,bj,prof_num,num_var        12        1      152        1
(PID.TID 0000.0001) bi,bj,prof_num,num_var        12        1      152        2
(PID.TID 0000.0001) bi,bj,prof_num,num_var        12        1      152        3
(PID.TID 0000.0001) bi,bj,prof_num,num_var        12        1      152        4
(PID.TID 0000.0001) bi,bj,prof_num,num_var        12        1      152        5
(PID.TID 0000.0001) bi,bj,prof_num,num_var        12        1      152        6
(PID.TID 0000.0001) buffer readvector         1        1        1      253     4420
(PID.TID 0000.0001) buffer readvector         2     1001        2      253     4420
(PID.TID 0000.0001) buffer readvector      1016     2015     1016      253     4420
(PID.TID 0000.0001) buffer readvector      2028     3027     2028      253     4420
(PID.TID 0000.0001) buffer readvector      3038     4037     3038      253     4420
(PID.TID 0000.0001) buffer readvector      4045     4420     4045      253     4420
(PID.TID 0000.0001) bi,bj,prof_num,num_var        13        1      253        1
(PID.TID 0000.0001) bi,bj,prof_num,num_var        13        1      253        2
(PID.TID 0000.0001) bi,bj,prof_num,num_var        13        1      253        3
(PID.TID 0000.0001) bi,bj,prof_num,num_var        13        1      253        4
(PID.TID 0000.0001) bi,bj,prof_num,num_var        13        1      253        5
(PID.TID 0000.0001) bi,bj,prof_num,num_var        13        1      253        6
(PID.TID 0000.0001) buffer readvector         1       65       65      187     4420
(PID.TID 0000.0001) buffer readvector        84     1083       84      187     4420
(PID.TID 0000.0001) buffer readvector      1088     2087     1088      187     4420
(PID.TID 0000.0001) buffer readvector      2090     3089     2090      187     4420
(PID.TID 0000.0001) buffer readvector      3099     4098     3099      187     4420
(PID.TID 0000.0001) buffer readvector      4104     4420     4104      187     4420
(PID.TID 0000.0001) bi,bj,prof_num,num_var        14        1      187        1
(PID.TID 0000.0001) bi,bj,prof_num,num_var        14        1      187        2
(PID.TID 0000.0001) bi,bj,prof_num,num_var        14        1      187        3
(PID.TID 0000.0001) bi,bj,prof_num,num_var        14        1      187        4
(PID.TID 0000.0001) bi,bj,prof_num,num_var        14        1      187        5
(PID.TID 0000.0001) bi,bj,prof_num,num_var        14        1      187        6
(PID.TID 0000.0001) buffer readvector         1       27       27      256     4420
(PID.TID 0000.0001) buffer readvector        28     1027       28      256     4420
(PID.TID 0000.0001) buffer readvector      1038     2037     1038      256     4420
(PID.TID 0000.0001) buffer readvector      2047     3046     2047      256     4420
(PID.TID 0000.0001) buffer readvector      3057     4056     3057      256     4420
(PID.TID 0000.0001) buffer readvector      4059     4420     4059      256     4420
(PID.TID 0000.0001) bi,bj,prof_num,num_var        15        1      256        1
(PID.TID 0000.0001) bi,bj,prof_num,num_var        15        1      256        2
(PID.TID 0000.0001) bi,bj,prof_num,num_var        15        1      256        3
(PID.TID 0000.0001) bi,bj,prof_num,num_var        15        1      256        4
(PID.TID 0000.0001) bi,bj,prof_num,num_var        15        1      256        5
(PID.TID 0000.0001) bi,bj,prof_num,num_var        15        1      256        6
(PID.TID 0000.0001) buffer readvector         1        9        9      257     4420
(PID.TID 0000.0001) buffer readvector        88     1087       88      257     4420
(PID.TID 0000.0001) buffer readvector      1121     2120     1121      257     4420
(PID.TID 0000.0001) buffer readvector      2133     3132     2133      257     4420
(PID.TID 0000.0001) buffer readvector      3155     4154     3155      257     4420
(PID.TID 0000.0001) buffer readvector      4199     4420     4199      257     4420
(PID.TID 0000.0001) bi,bj,prof_num,num_var        16        1      257        1
(PID.TID 0000.0001) bi,bj,prof_num,num_var        16        1      257        2
(PID.TID 0000.0001) bi,bj,prof_num,num_var        16        1      257        3
(PID.TID 0000.0001) bi,bj,prof_num,num_var        16        1      257        4
(PID.TID 0000.0001) bi,bj,prof_num,num_var        16        1      257        5
(PID.TID 0000.0001) bi,bj,prof_num,num_var        16        1      257        6
(PID.TID 0000.0001) buffer readvector         1       15       15      188     4420
(PID.TID 0000.0001) buffer readvector        54     1053       54      188     4420
(PID.TID 0000.0001) buffer readvector      1092     2091     1092      188     4420
(PID.TID 0000.0001) buffer readvector      2103     3102     2103      188     4420
(PID.TID 0000.0001) buffer readvector      3209     4208     3209      188     4420
(PID.TID 0000.0001) buffer readvector      4242     4420     4242      188     4420
(PID.TID 0000.0001) bi,bj,prof_num,num_var        17        1      188        1
(PID.TID 0000.0001) bi,bj,prof_num,num_var        17        1      188        2
(PID.TID 0000.0001) bi,bj,prof_num,num_var        17        1      188        3
(PID.TID 0000.0001) bi,bj,prof_num,num_var        17        1      188        4
(PID.TID 0000.0001) bi,bj,prof_num,num_var        17        1      188        5
(PID.TID 0000.0001) bi,bj,prof_num,num_var        17        1      188        6
(PID.TID 0000.0001) buffer readvector         1        6        6      256     4420
(PID.TID 0000.0001) buffer readvector        21     1020       21      256     4420
(PID.TID 0000.0001) buffer readvector      1034     2033     1034      256     4420
(PID.TID 0000.0001) buffer readvector      2040     3039     2040      256     4420
(PID.TID 0000.0001) buffer readvector      3055     4054     3055      256     4420
(PID.TID 0000.0001) buffer readvector      4088     4420     4088      256     4420
(PID.TID 0000.0001) bi,bj,prof_num,num_var        18        1      256        1
(PID.TID 0000.0001) bi,bj,prof_num,num_var        18        1      256        2
(PID.TID 0000.0001) bi,bj,prof_num,num_var        18        1      256        3
(PID.TID 0000.0001) bi,bj,prof_num,num_var        18        1      256        4
(PID.TID 0000.0001) bi,bj,prof_num,num_var        18        1      256        5
(PID.TID 0000.0001) bi,bj,prof_num,num_var        18        1      256        6
(PID.TID 0000.0001) buffer readvector         1       49       49      194     4420
(PID.TID 0000.0001) buffer readvector        63     1062       63      194     4420
(PID.TID 0000.0001) buffer readvector      1091     2090     1091      194     4420
(PID.TID 0000.0001) buffer readvector      2129     3128     2129      194     4420
(PID.TID 0000.0001) buffer readvector      3207     4206     3207      194     4420
(PID.TID 0000.0001) buffer readvector      4216     4420     4216      194     4420
(PID.TID 0000.0001) bi,bj,prof_num,num_var        19        1      194        1
(PID.TID 0000.0001) bi,bj,prof_num,num_var        19        1      194        2
(PID.TID 0000.0001) bi,bj,prof_num,num_var        19        1      194        3
(PID.TID 0000.0001) bi,bj,prof_num,num_var        19        1      194        4
(PID.TID 0000.0001) bi,bj,prof_num,num_var        19        1      194        5
(PID.TID 0000.0001) bi,bj,prof_num,num_var        19        1      194        6
(PID.TID 0000.0001) buffer readvector         1      104      104      106     4420
(PID.TID 0000.0001) buffer readvector       111     1110      111      106     4420
(PID.TID 0000.0001) buffer readvector      1166     2165     1166      106     4420
(PID.TID 0000.0001) buffer readvector      2167     3166     2167      106     4420
(PID.TID 0000.0001) buffer readvector      3184     4183     3184      106     4420
(PID.TID 0000.0001) buffer readvector      4269     4420     4269      106     4420
(PID.TID 0000.0001) bi,bj,prof_num,num_var        20        1      106        1
(PID.TID 0000.0001) bi,bj,prof_num,num_var        20        1      106        2
(PID.TID 0000.0001) bi,bj,prof_num,num_var        20        1      106        3
(PID.TID 0000.0001) bi,bj,prof_num,num_var        20        1      106        4
(PID.TID 0000.0001) bi,bj,prof_num,num_var        20        1      106        5
(PID.TID 0000.0001) bi,bj,prof_num,num_var        20        1      106        6
(PID.TID 0000.0001) buffer readvector         1       29       29      235     4420
(PID.TID 0000.0001) buffer readvector        55     1054       55      235     4420
(PID.TID 0000.0001) buffer readvector      1073     2072     1073      235     4420
(PID.TID 0000.0001) buffer readvector      2073     3072     2073      235     4420
(PID.TID 0000.0001) buffer readvector      3094     4093     3094      235     4420
(PID.TID 0000.0001) buffer readvector      4112     4420     4112      235     4420
(PID.TID 0000.0001) bi,bj,prof_num,num_var        21        1      235        1
(PID.TID 0000.0001) bi,bj,prof_num,num_var        21        1      235        2
(PID.TID 0000.0001) bi,bj,prof_num,num_var        21        1      235        3
(PID.TID 0000.0001) bi,bj,prof_num,num_var        21        1      235        4
(PID.TID 0000.0001) bi,bj,prof_num,num_var        21        1      235        5
(PID.TID 0000.0001) bi,bj,prof_num,num_var        21        1      235        6
(PID.TID 0000.0001) buffer readvector         1        5        5      212     4420
(PID.TID 0000.0001) buffer readvector        50     1049       50      212     4420
(PID.TID 0000.0001) buffer readvector      1051     2050     1051      212     4420
(PID.TID 0000.0001) buffer readvector      2067     3066     2067      212     4420
(PID.TID 0000.0001) buffer readvector      3084     4083     3084      212     4420
(PID.TID 0000.0001) buffer readvector      4087     4420     4087      212     4420
(PID.TID 0000.0001) bi,bj,prof_num,num_var        22        1      212        1
(PID.TID 0000.0001) bi,bj,prof_num,num_var        22        1      212        2
(PID.TID 0000.0001) bi,bj,prof_num,num_var        22        1      212        3
(PID.TID 0000.0001) bi,bj,prof_num,num_var        22        1      212        4
(PID.TID 0000.0001) bi,bj,prof_num,num_var        22        1      212        5
(PID.TID 0000.0001) bi,bj,prof_num,num_var        22        1      212        6
(PID.TID 0000.0001) buffer readvector         1       40       40      225     4420
(PID.TID 0000.0001) buffer readvector       119     1118      119      225     4420
(PID.TID 0000.0001) buffer readvector      1126     2125     1126      225     4420
(PID.TID 0000.0001) buffer readvector      2134     3133     2134      225     4420
(PID.TID 0000.0001) buffer readvector      3194     4193     3194      225     4420
(PID.TID 0000.0001) buffer readvector      4205     4420     4205      225     4420
(PID.TID 0000.0001) bi,bj,prof_num,num_var        23        1      225        1
(PID.TID 0000.0001) bi,bj,prof_num,num_var        23        1      225        2
(PID.TID 0000.0001) bi,bj,prof_num,num_var        23        1      225        3
(PID.TID 0000.0001) bi,bj,prof_num,num_var        23        1      225        4
(PID.TID 0000.0001) bi,bj,prof_num,num_var        23        1      225        5
(PID.TID 0000.0001) bi,bj,prof_num,num_var        23        1      225        6
(PID.TID 0000.0001) buffer readvector         1       13       13      213     4420
(PID.TID 0000.0001) buffer readvector        17     1016       17      213     4420
(PID.TID 0000.0001) buffer readvector      1022     2021     1022      213     4420
(PID.TID 0000.0001) buffer readvector      2022     3021     2022      213     4420
(PID.TID 0000.0001) buffer readvector      3032     4031     3032      213     4420
(PID.TID 0000.0001) buffer readvector      4040     4420     4040      213     4420
(PID.TID 0000.0001) bi,bj,prof_num,num_var        24        1      213        1
(PID.TID 0000.0001) bi,bj,prof_num,num_var        24        1      213        2
(PID.TID 0000.0001) bi,bj,prof_num,num_var        24        1      213        3
(PID.TID 0000.0001) bi,bj,prof_num,num_var        24        1      213        4
(PID.TID 0000.0001) bi,bj,prof_num,num_var        24        1      213        5
(PID.TID 0000.0001) bi,bj,prof_num,num_var        24        1      213        6
 --> f_ice     = 0.000000000000000D+00
 --> f_smrarea = 0.000000000000000D+00
 --> f_smrarea = 0.000000000000000D+00
 --> f_smrarea = 0.000000000000000D+00
 --> f_temp    = 0.365003478334519D+05
 --> f_salt    = 0.247660884149338D+05
 --> f_temp0   = 0.999999955296517D-04
 --> f_salt0   = 0.000000000000000D+00
 --> f_temp0smoo = 0.000000000000000D+00
 --> f_salt0smoo = 0.000000000000000D+00
 --> f_etan0   = 0.000000000000000D+00
 --> f_uvel0   = 0.000000000000000D+00
 --> f_vvel0   = 0.000000000000000D+00
 --> f_sst     = 0.000000000000000D+00
 --> f_tmi     = 0.000000000000000D+00
 --> f_sss     = 0.000000000000000D+00
 --> f_bp      = 0.000000000000000D+00
 --> f_ies      = 0.000000000000000D+00
 --> f_ssh       = 0.000000000000000D+00
 --> f_tp        = 0.000000000000000D+00
 --> f_ers       = 0.000000000000000D+00
 --> f_gfo       = 0.000000000000000D+00
 --> f_tauu    = 0.000000000000000D+00
 --> f_tauum   = 0.000000000000000D+00
 --> f_tauusmoo = 0.000000000000000D+00
 --> f_tauv    = 0.000000000000000D+00
 --> f_tauvm   = 0.000000000000000D+00
 --> f_tauvsmoo = 0.000000000000000D+00
 --> f_hflux   = 0.000000000000000D+00
 --> f_hfluxmm = 0.000000000000000D+00
 --> f_hfluxsmoo = 0.000000000000000D+00
 --> f_sflux   = 0.000000000000000D+00
 --> f_sfluxmm = 0.000000000000000D+00
 --> f_sfluxsmoo = 0.000000000000000D+00
 --> f_uwind     = 0.000000000000000D+00
 --> f_vwind     = 0.000000000000000D+00
 --> f_atemp     = 0.000000000000000D+00
 --> f_aqh     = 0.000000000000000D+00
 --> f_precip  = 0.000000000000000D+00
 --> f_swflux  = 0.000000000000000D+00
 --> f_swdown  = 0.000000000000000D+00
 --> f_uwindm     = 0.000000000000000D+00
 --> f_vwindm     = 0.000000000000000D+00
 --> f_atempm     = 0.000000000000000D+00
 --> f_aqhm     = 0.000000000000000D+00
 --> f_precipm  = 0.000000000000000D+00
 --> f_swfluxm  = 0.000000000000000D+00
 --> f_swdownm  = 0.000000000000000D+00
 --> f_uwindsmoo     = 0.000000000000000D+00
 --> f_vwindsmoo     = 0.000000000000000D+00
 --> f_atempsmoo     = 0.000000000000000D+00
 --> f_aqhsmoo     = 0.000000000000000D+00
 --> f_precipsmoo  = 0.000000000000000D+00
 --> f_swfluxsmoo  = 0.000000000000000D+00
 --> f_swdownsmoo  = 0.000000000000000D+00
 --> f_atl     = 0.000000000000000D+00
 --> f_ctdt    = 0.000000000000000D+00
 --> f_ctds    = 0.000000000000000D+00
 --> f_ctdtclim= 0.000000000000000D+00
 --> f_ctdsclim= 0.000000000000000D+00
 --> f_xbt     = 0.000000000000000D+00
 --> f_argot   = 0.000000000000000D+00
 --> f_argos   = 0.000000000000000D+00
 --> f_drifter   = 0.000000000000000D+00
 --> f_tdrift  = 0.000000000000000D+00
 --> f_sdrift  = 0.000000000000000D+00
 --> f_wdrift  = 0.000000000000000D+00
 --> f_scatx   = 0.000000000000000D+00
 --> f_scaty   = 0.000000000000000D+00
 --> f_scatxm  = 0.000000000000000D+00
 --> f_scatym  = 0.000000000000000D+00
 --> f_obcsn   = 0.000000000000000D+00
 --> f_obcss   = 0.000000000000000D+00
 --> f_obcsw   = 0.000000000000000D+00
 --> f_obcse   = 0.000000000000000D+00
 --> f_ageos   = 0.000000000000000D+00
 --> f_curmtr  = 0.000000000000000D+00
 --> f_kapgm   = 0.000000000000000D+00
 --> f_kapredi   = 0.000000000000000D+00
 --> f_diffkr  = 0.000000000000000D+00
 --> f_eddytau = 0.000000000000000D+00
 --> f_bottomdrag = 0.000000000000000D+00
 --> f_profiles = 0.134973190481753D+04 1 1
 --> f_profiles = 0.229260626457030D+05 1 2
 --> f_profiles = 0.000000000000000D+00 1 3
 --> f_profiles = 0.000000000000000D+00 1 4
 --> f_profiles = 0.000000000000000D+00 1 5
 --> f_profiles = 0.000000000000000D+00 1 6
 --> f_hfluxmm2           = 0.000000000000000D+00
 --> f_sfluxmm2           = 0.000000000000000D+00
 --> f_transp             = 0.000000000000000D+00
 --> objf_hmean           = 0.000000000000000D+00
 --> fc               = 0.000000000000000D+00
  early fc =  0.000000000000000D+00
 --> objf_test(bi,bj)   =  0.000000000000000D+00
 --> objf_tracer(bi,bj) =  0.000000000000000D+00
 --> objf_atl(bi,bj)    =  0.000000000000000D+00
 --> objf_test(bi,bj)   =  0.000000000000000D+00
 --> objf_tracer(bi,bj) =  0.000000000000000D+00
 --> objf_atl(bi,bj)    =  0.000000000000000D+00
 --> objf_test(bi,bj)   =  0.000000000000000D+00
 --> objf_tracer(bi,bj) =  0.000000000000000D+00
 --> objf_atl(bi,bj)    =  0.000000000000000D+00
 --> objf_test(bi,bj)   =  0.000000000000000D+00
 --> objf_tracer(bi,bj) =  0.000000000000000D+00
 --> objf_atl(bi,bj)    =  0.000000000000000D+00
 --> objf_test(bi,bj)   =  0.000000000000000D+00
 --> objf_tracer(bi,bj) =  0.000000000000000D+00
 --> objf_atl(bi,bj)    =  0.000000000000000D+00
 --> objf_test(bi,bj)   =  0.000000000000000D+00
 --> objf_tracer(bi,bj) =  0.000000000000000D+00
 --> objf_atl(bi,bj)    =  0.000000000000000D+00
 --> objf_test(bi,bj)   =  0.000000000000000D+00
 --> objf_tracer(bi,bj) =  0.000000000000000D+00
 --> objf_atl(bi,bj)    =  0.000000000000000D+00
 --> objf_test(bi,bj)   =  0.000000000000000D+00
 --> objf_tracer(bi,bj) =  0.000000000000000D+00
 --> objf_atl(bi,bj)    =  0.000000000000000D+00
 --> objf_test(bi,bj)   =  0.000000000000000D+00
 --> objf_tracer(bi,bj) =  0.000000000000000D+00
 --> objf_atl(bi,bj)    =  0.000000000000000D+00
 --> objf_test(bi,bj)   =  0.000000000000000D+00
 --> objf_tracer(bi,bj) =  0.000000000000000D+00
 --> objf_atl(bi,bj)    =  0.000000000000000D+00
 --> objf_test(bi,bj)   =  0.000000000000000D+00
 --> objf_tracer(bi,bj) =  0.000000000000000D+00
 --> objf_atl(bi,bj)    =  0.000000000000000D+00
 --> objf_test(bi,bj)   =  0.000000000000000D+00
 --> objf_tracer(bi,bj) =  0.000000000000000D+00
 --> objf_atl(bi,bj)    =  0.000000000000000D+00
 --> objf_test(bi,bj)   =  0.000000000000000D+00
 --> objf_tracer(bi,bj) =  0.000000000000000D+00
 --> objf_atl(bi,bj)    =  0.000000000000000D+00
 --> objf_test(bi,bj)   =  0.000000000000000D+00
 --> objf_tracer(bi,bj) =  0.000000000000000D+00
 --> objf_atl(bi,bj)    =  0.000000000000000D+00
 --> objf_test(bi,bj)   =  0.000000000000000D+00
 --> objf_tracer(bi,bj) =  0.000000000000000D+00
 --> objf_atl(bi,bj)    =  0.000000000000000D+00
 --> objf_test(bi,bj)   =  0.000000000000000D+00
 --> objf_tracer(bi,bj) =  0.000000000000000D+00
 --> objf_atl(bi,bj)    =  0.000000000000000D+00
 --> objf_test(bi,bj)   =  0.000000000000000D+00
 --> objf_tracer(bi,bj) =  0.000000000000000D+00
 --> objf_atl(bi,bj)    =  0.000000000000000D+00
 --> objf_test(bi,bj)   =  0.000000000000000D+00
 --> objf_tracer(bi,bj) =  0.000000000000000D+00
 --> objf_atl(bi,bj)    =  0.000000000000000D+00
 --> objf_test(bi,bj)   =  0.000000000000000D+00
 --> objf_tracer(bi,bj) =  0.000000000000000D+00
 --> objf_atl(bi,bj)    =  0.000000000000000D+00
 --> objf_test(bi,bj)   =  0.000000000000000D+00
 --> objf_tracer(bi,bj) =  0.000000000000000D+00
 --> objf_atl(bi,bj)    =  0.000000000000000D+00
 --> objf_test(bi,bj)   =  0.000000000000000D+00
 --> objf_tracer(bi,bj) =  0.000000000000000D+00
 --> objf_atl(bi,bj)    =  0.000000000000000D+00
 --> objf_test(bi,bj)   =  0.000000000000000D+00
 --> objf_tracer(bi,bj) =  0.000000000000000D+00
 --> objf_atl(bi,bj)    =  0.000000000000000D+00
 --> objf_test(bi,bj)   =  0.000000000000000D+00
 --> objf_tracer(bi,bj) =  0.000000000000000D+00
 --> objf_atl(bi,bj)    =  0.000000000000000D+00
 --> objf_test(bi,bj)   =  0.000000000000000D+00
 --> objf_tracer(bi,bj) =  0.000000000000000D+00
 --> objf_atl(bi,bj)    =  0.000000000000000D+00
  local fc =  0.242757946505205D+05
 global fc =  0.242757946505205D+05
(PID.TID 0000.0001) grdchk perturb(-)fc: fcpertminus =  2.42757946505205E+04
grad-res -------------------------------
 grad-res     0    4    4    1    1    1    1    1   2.42757986140E+04  2.42758027780E+04  2.42757946505E+04
 grad-res     0    4    4    4    0    1    1    1   4.06362086535E-01  4.06373018268E-01 -2.69014599930E-05
(PID.TID 0000.0001)  ADM  ref_cost_function      =  2.42757986140463E+04
(PID.TID 0000.0001)  ADM  adjoint_gradient       =  4.06362086534500E-01
(PID.TID 0000.0001)  ADM  finite-diff_grad       =  4.06373018267914E-01
(PID.TID 0000.0001) ====== End of gradient-check number   4 (ierr=  0) =======
(PID.TID 0000.0001) 
(PID.TID 0000.0001) // =======================================================
(PID.TID 0000.0001) // Gradient check results  >>> START <<<
(PID.TID 0000.0001) // =======================================================
(PID.TID 0000.0001) 
(PID.TID 0000.0001)  EPS =   1.000000E-02
(PID.TID 0000.0001) 
(PID.TID 0000.0001) grdchk output h.p:  Id Itile Jtile LAYER   bi   bj   X(Id)           X(Id)+/-EPS
(PID.TID 0000.0001) grdchk output h.c:  Id  FC                   FC1                  FC2
(PID.TID 0000.0001) grdchk output h.g:  Id     FC1-FC2/(2*EPS)      ADJ GRAD(FC)         1-FDGRD/ADGRD
(PID.TID 0000.0001) 
(PID.TID 0000.0001) grdchk output (p):   1     1     1     1    1    1   0.000000000E+00 -1.000000000E-02
(PID.TID 0000.0001) grdchk output (c):   1  2.4275798614046E+04  2.4275803908066E+04  2.4275793521960E+04
(PID.TID 0000.0001) grdchk output (g):   1     5.1930529898527E-01  5.1421499252319E-01 -9.8991794017951E-03
(PID.TID 0000.0001) 
(PID.TID 0000.0001) grdchk output (p):   2     2     1     1    1    1   0.000000000E+00 -1.000000000E-02
(PID.TID 0000.0001) grdchk output (c):   2  2.4275798614046E+04  2.4275804365846E+04  2.4275793065543E+04
(PID.TID 0000.0001) grdchk output (g):   2     5.6501514627598E-01  5.6269872188568E-01 -4.1166334669083E-03
(PID.TID 0000.0001) 
(PID.TID 0000.0001) grdchk output (p):   3     3     1     1    1    1   0.000000000E+00 -1.000000000E-02
(PID.TID 0000.0001) grdchk output (c):   3  2.4275798614046E+04  2.4275803713348E+04  2.4275793717714E+04
(PID.TID 0000.0001) grdchk output (g):   3     4.9978168590314E-01  4.9913004040718E-01 -1.3055625652829E-03
(PID.TID 0000.0001) 
(PID.TID 0000.0001) grdchk output (p):   4     4     1     1    1    1   0.000000000E+00 -1.000000000E-02
(PID.TID 0000.0001) grdchk output (c):   4  2.4275798614046E+04  2.4275802777981E+04  2.4275794650521E+04
(PID.TID 0000.0001) grdchk output (g):   4     4.0637301826791E-01  4.0636208653450E-01 -2.6901459992956E-05
(PID.TID 0000.0001) 
(PID.TID 0000.0001) grdchk  summary  :  RMS of    4 ratios =  5.4001305824538E-03
(PID.TID 0000.0001) 
(PID.TID 0000.0001) // =======================================================
(PID.TID 0000.0001) // Gradient check results  >>> END <<<
(PID.TID 0000.0001) // =======================================================
(PID.TID 0000.0001) 
(PID.TID 0000.0001)   Seconds in section "ALL                    [THE_MODEL_MAIN]":
(PID.TID 0000.0001)           User time:   4896.5200000000004
(PID.TID 0000.0001)         System time:   3.2000000000000002
(PID.TID 0000.0001)     Wall clock time:   4910.3731350898743
(PID.TID 0000.0001)          No. starts:           1
(PID.TID 0000.0001)           No. stops:           1
(PID.TID 0000.0001)   Seconds in section "INITIALISE_FIXED       [THE_MODEL_MAIN]":
(PID.TID 0000.0001)           User time:   2.5500000000000003
(PID.TID 0000.0001)         System time:  0.28999999999999998
(PID.TID 0000.0001)     Wall clock time:   2.8791899681091309
(PID.TID 0000.0001)          No. starts:           1
(PID.TID 0000.0001)           No. stops:           1
(PID.TID 0000.0001)   Seconds in section "ADTHE_MAIN_LOOP          [ADJOINT RUN]":
(PID.TID 0000.0001)           User time:   4134.2399999999998
(PID.TID 0000.0001)         System time:   2.1400000000000001
(PID.TID 0000.0001)     Wall clock time:   4145.2739398479462
(PID.TID 0000.0001)          No. starts:           1
(PID.TID 0000.0001)           No. stops:           1
(PID.TID 0000.0001)   Seconds in section "FORWARD_STEP        [MAIN_DO_LOOP]":
(PID.TID 0000.0001)           User time:   382.33000000000084
(PID.TID 0000.0001)         System time:  0.14000000000000057
(PID.TID 0000.0001)     Wall clock time:   383.33438062667847
(PID.TID 0000.0001)          No. starts:          80
(PID.TID 0000.0001)           No. stops:          80
(PID.TID 0000.0001)   Seconds in section "UPDATE_R_STAR       [FORWARD_STEP]":
(PID.TID 0000.0001)           User time:   8.0599999999994907
(PID.TID 0000.0001)         System time:  1.00000000000002309E-002
(PID.TID 0000.0001)     Wall clock time:   8.0877923965454102
(PID.TID 0000.0001)          No. starts:         160
(PID.TID 0000.0001)           No. stops:         160
(PID.TID 0000.0001)   Seconds in section "LOAD_FIELDS_DRIVER  [FORWARD_STEP]":
(PID.TID 0000.0001)           User time:   8.5500000000010914
(PID.TID 0000.0001)         System time:  4.00000000000004796E-002
(PID.TID 0000.0001)     Wall clock time:   8.6023232936859131
(PID.TID 0000.0001)          No. starts:          80
(PID.TID 0000.0001)           No. stops:          80
(PID.TID 0000.0001)   Seconds in section "EXF_GETFORCING     [LOAD_FLDS_DRIVER]":
(PID.TID 0000.0001)           User time:   9.4100000000007640
(PID.TID 0000.0001)         System time:  4.00000000000004796E-002
(PID.TID 0000.0001)     Wall clock time:   9.4563267230987549
(PID.TID 0000.0001)          No. starts:          88
(PID.TID 0000.0001)           No. stops:          88
(PID.TID 0000.0001)   Seconds in section "I/O (WRITE)        [ADJOINT LOOP]":
(PID.TID 0000.0001)           User time:  0.47000000000025466
(PID.TID 0000.0001)         System time:  2.00000000000000178E-002
(PID.TID 0000.0001)     Wall clock time:  0.48995423316955566
(PID.TID 0000.0001)          No. starts:         329
(PID.TID 0000.0001)           No. stops:         329
(PID.TID 0000.0001)   Seconds in section "EXTERNAL_FLDS_LOAD [LOAD_FLDS_DRIVER]":
(PID.TID 0000.0001)           User time:   0.0000000000000000
(PID.TID 0000.0001)         System time:   0.0000000000000000
(PID.TID 0000.0001)     Wall clock time:  8.12530517578125000E-004
(PID.TID 0000.0001)          No. starts:          88
(PID.TID 0000.0001)           No. stops:          88
(PID.TID 0000.0001)   Seconds in section "DO_ATMOSPHERIC_PHYS [FORWARD_STEP]":
(PID.TID 0000.0001)           User time:   0.0000000000000000
(PID.TID 0000.0001)         System time:   0.0000000000000000
(PID.TID 0000.0001)     Wall clock time:  7.04050064086914063E-004
(PID.TID 0000.0001)          No. starts:          80
(PID.TID 0000.0001)           No. stops:          80
(PID.TID 0000.0001)   Seconds in section "DO_OCEANIC_PHYS     [FORWARD_STEP]":
(PID.TID 0000.0001)           User time:   106.44000000000051
(PID.TID 0000.0001)         System time:  3.00000000000002487E-002
(PID.TID 0000.0001)     Wall clock time:   106.67193150520325
(PID.TID 0000.0001)          No. starts:          80
(PID.TID 0000.0001)           No. stops:          80
(PID.TID 0000.0001)   Seconds in section "SEAICE_MODEL    [DO_OCEANIC_PHYS]":
(PID.TID 0000.0001)           User time:   7.5499999999992724
(PID.TID 0000.0001)         System time:   0.0000000000000000
(PID.TID 0000.0001)     Wall clock time:   7.5098125934600830
(PID.TID 0000.0001)          No. starts:          80
(PID.TID 0000.0001)           No. stops:          80
(PID.TID 0000.0001)   Seconds in section "SEAICE_DYNSOLVER   [SEAICE_MODEL]":
(PID.TID 0000.0001)           User time:   6.1399999999994179
(PID.TID 0000.0001)         System time:   0.0000000000000000
(PID.TID 0000.0001)     Wall clock time:   6.0958855152130127
(PID.TID 0000.0001)          No. starts:          88
(PID.TID 0000.0001)           No. stops:          88
(PID.TID 0000.0001)   Seconds in section "GGL90_CALC [DO_OCEANIC_PHYS]":
(PID.TID 0000.0001)           User time:   28.279999999999745
(PID.TID 0000.0001)         System time:  1.00000000000002309E-002
(PID.TID 0000.0001)     Wall clock time:   28.268866777420044
(PID.TID 0000.0001)          No. starts:        1920
(PID.TID 0000.0001)           No. stops:        1920
(PID.TID 0000.0001)   Seconds in section "DYNAMICS            [FORWARD_STEP]":
(PID.TID 0000.0001)           User time:   95.800000000002001
(PID.TID 0000.0001)         System time:  2.00000000000000178E-002
(PID.TID 0000.0001)     Wall clock time:   96.031551599502563
(PID.TID 0000.0001)          No. starts:          80
(PID.TID 0000.0001)           No. stops:          80
(PID.TID 0000.0001)   Seconds in section "SOLVE_FOR_PRESSURE  [FORWARD_STEP]":
(PID.TID 0000.0001)           User time:   4.9099999999998545
(PID.TID 0000.0001)         System time:   0.0000000000000000
(PID.TID 0000.0001)     Wall clock time:   4.9248645305633545
(PID.TID 0000.0001)          No. starts:          80
(PID.TID 0000.0001)           No. stops:          80
(PID.TID 0000.0001)   Seconds in section "MOM_CORRECTION_STEP [FORWARD_STEP]":
(PID.TID 0000.0001)           User time:   1.8499999999985448
(PID.TID 0000.0001)         System time:   0.0000000000000000
(PID.TID 0000.0001)     Wall clock time:   1.8856313228607178
(PID.TID 0000.0001)          No. starts:          80
(PID.TID 0000.0001)           No. stops:          80
(PID.TID 0000.0001)   Seconds in section "INTEGR_CONTINUITY   [FORWARD_STEP]":
(PID.TID 0000.0001)           User time:   3.7099999999991269
(PID.TID 0000.0001)         System time:   0.0000000000000000
(PID.TID 0000.0001)     Wall clock time:   3.6820800304412842
(PID.TID 0000.0001)          No. starts:          80
(PID.TID 0000.0001)           No. stops:          80
(PID.TID 0000.0001)   Seconds in section "CALC_R_STAR         [FORWARD_STEP]":
(PID.TID 0000.0001)           User time:  0.30000000000109139
(PID.TID 0000.0001)         System time:   0.0000000000000000
(PID.TID 0000.0001)     Wall clock time:  0.33294892311096191
(PID.TID 0000.0001)          No. starts:          80
(PID.TID 0000.0001)           No. stops:          80
(PID.TID 0000.0001)   Seconds in section "BLOCKING_EXCHANGES  [FORWARD_STEP]":
(PID.TID 0000.0001)           User time:   9.2599999999956708
(PID.TID 0000.0001)         System time:   0.0000000000000000
(PID.TID 0000.0001)     Wall clock time:   9.2483866214752197
(PID.TID 0000.0001)          No. starts:         160
(PID.TID 0000.0001)           No. stops:         160
(PID.TID 0000.0001)   Seconds in section "THERMODYNAMICS      [FORWARD_STEP]":
(PID.TID 0000.0001)           User time:   141.24000000000251
(PID.TID 0000.0001)         System time:  1.00000000000002309E-002
(PID.TID 0000.0001)     Wall clock time:   141.55358242988586
(PID.TID 0000.0001)          No. starts:          80
(PID.TID 0000.0001)           No. stops:          80
(PID.TID 0000.0001)   Seconds in section "TRC_CORRECTION_STEP [FORWARD_STEP]":
(PID.TID 0000.0001)           User time:   1.0400000000008731
(PID.TID 0000.0001)         System time:   0.0000000000000000
(PID.TID 0000.0001)     Wall clock time:   1.0832252502441406
(PID.TID 0000.0001)          No. starts:          80
(PID.TID 0000.0001)           No. stops:          80
(PID.TID 0000.0001)   Seconds in section "DO_STATEVARS_TAVE   [FORWARD_STEP]":
(PID.TID 0000.0001)           User time:   0.0000000000000000
(PID.TID 0000.0001)         System time:   0.0000000000000000
(PID.TID 0000.0001)     Wall clock time:  7.59601593017578125E-004
(PID.TID 0000.0001)          No. starts:          80
(PID.TID 0000.0001)           No. stops:          80
(PID.TID 0000.0001)   Seconds in section "MONITOR             [FORWARD_STEP]":
(PID.TID 0000.0001)           User time:  0.89999999999963620
(PID.TID 0000.0001)         System time:   0.0000000000000000
(PID.TID 0000.0001)     Wall clock time:  0.90855789184570313
(PID.TID 0000.0001)          No. starts:          80
(PID.TID 0000.0001)           No. stops:          80
(PID.TID 0000.0001)   Seconds in section "COST_TILE           [FORWARD_STEP]":
(PID.TID 0000.0001)           User time:   0.0000000000000000
(PID.TID 0000.0001)         System time:   0.0000000000000000
(PID.TID 0000.0001)     Wall clock time:  7.59124755859375000E-004
(PID.TID 0000.0001)          No. starts:          80
(PID.TID 0000.0001)           No. stops:          80
(PID.TID 0000.0001)   Seconds in section "DO_THE_MODEL_IO     [FORWARD_STEP]":
(PID.TID 0000.0001)           User time:  0.10999999999967258
(PID.TID 0000.0001)         System time:  1.00000000000002309E-002
(PID.TID 0000.0001)     Wall clock time:  0.12281370162963867
(PID.TID 0000.0001)          No. starts:          80
(PID.TID 0000.0001)           No. stops:          80
(PID.TID 0000.0001)   Seconds in section "DO_WRITE_PICKUP     [FORWARD_STEP]":
(PID.TID 0000.0001)           User time:  0.15999999999985448
(PID.TID 0000.0001)         System time:  2.00000000000000178E-002
(PID.TID 0000.0001)     Wall clock time:  0.18152165412902832
(PID.TID 0000.0001)          No. starts:          80
(PID.TID 0000.0001)           No. stops:          80
(PID.TID 0000.0001)   Seconds in section "COST_KAPGM      [ECCO SPIN-DOWN]":
(PID.TID 0000.0001)           User time:  0.18000000000211003
(PID.TID 0000.0001)         System time:  1.00000000000002309E-002
(PID.TID 0000.0001)     Wall clock time:  0.18091106414794922
(PID.TID 0000.0001)          No. starts:           9
(PID.TID 0000.0001)           No. stops:           9
(PID.TID 0000.0001)   Seconds in section "COST_KAPREDI      [ECCO SPIN-DOWN]":
(PID.TID 0000.0001)           User time:  0.16999999999825377
(PID.TID 0000.0001)         System time:   0.0000000000000000
(PID.TID 0000.0001)     Wall clock time:  0.17752838134765625
(PID.TID 0000.0001)          No. starts:           9
(PID.TID 0000.0001)           No. stops:           9
(PID.TID 0000.0001)   Seconds in section "COST_DIFFKR      [ECCO SPIN-DOWN]":
(PID.TID 0000.0001)           User time:  0.20000000000163709
(PID.TID 0000.0001)         System time:   0.0000000000000000
(PID.TID 0000.0001)     Wall clock time:  0.19446539878845215
(PID.TID 0000.0001)          No. starts:           9
(PID.TID 0000.0001)           No. stops:           9
(PID.TID 0000.0001)   Seconds in section "CTRL_PACK           [THE_MODEL_MAIN]":
(PID.TID 0000.0001)           User time:  0.40999999999985448
(PID.TID 0000.0001)         System time:  2.00000000000000178E-002
(PID.TID 0000.0001)     Wall clock time:  0.43325901031494141
(PID.TID 0000.0001)          No. starts:           1
(PID.TID 0000.0001)           No. stops:           1
(PID.TID 0000.0001)   Seconds in section "CTRL_PACK     [THE_MODEL_MAIN]":
(PID.TID 0000.0001)           User time:  0.40999999999985448
(PID.TID 0000.0001)         System time:  9.99999999999978684E-003
(PID.TID 0000.0001)     Wall clock time:  0.42367601394653320
(PID.TID 0000.0001)          No. starts:           1
(PID.TID 0000.0001)           No. stops:           1
(PID.TID 0000.0001)   Seconds in section "GRDCHK_MAIN         [THE_MODEL_MAIN]":
(PID.TID 0000.0001)           User time:   758.91000000000076
(PID.TID 0000.0001)         System time:  0.74000000000000021
(PID.TID 0000.0001)     Wall clock time:   761.36299395561218
(PID.TID 0000.0001)          No. starts:           1
(PID.TID 0000.0001)           No. stops:           1
(PID.TID 0000.0001)   Seconds in section "INITIALISE_VARIA    [THE_MAIN_LOOP]":
(PID.TID 0000.0001)           User time:   443.42000000000098
(PID.TID 0000.0001)         System time:  0.25999999999999934
(PID.TID 0000.0001)     Wall clock time:   444.67673397064209
(PID.TID 0000.0001)          No. starts:           8
(PID.TID 0000.0001)           No. stops:           8
(PID.TID 0000.0001)   Seconds in section "MAIN LOOP           [THE_MAIN_LOOP]":
(PID.TID 0000.0001)           User time:   314.91999999999916
(PID.TID 0000.0001)         System time:  0.47000000000000064
(PID.TID 0000.0001)     Wall clock time:   316.07940316200256
(PID.TID 0000.0001)          No. starts:           8
(PID.TID 0000.0001)           No. stops:           8
(PID.TID 0000.0001)   Seconds in section "COST_AVERAGESFIELDS [MAIN_DO_LOOP]":
(PID.TID 0000.0001)           User time:   1.2399999999979627
(PID.TID 0000.0001)         System time:   0.0000000000000000
(PID.TID 0000.0001)     Wall clock time:   1.2582867145538330
(PID.TID 0000.0001)          No. starts:          64
(PID.TID 0000.0001)           No. stops:          64
(PID.TID 0000.0001)   Seconds in section "PROFILES_INLOOP    [MAIN_DO_LOOP]":
(PID.TID 0000.0001)           User time:   2.4799999999995634
(PID.TID 0000.0001)         System time:  6.00000000000000533E-002
(PID.TID 0000.0001)     Wall clock time:   2.5324110984802246
(PID.TID 0000.0001)          No. starts:          64
(PID.TID 0000.0001)           No. stops:          64
(PID.TID 0000.0001)   Seconds in section "MAIN_DO_LOOP        [THE_MAIN_LOOP]":
(PID.TID 0000.0001)           User time:   305.02000000000044
(PID.TID 0000.0001)         System time:  5.00000000000002665E-002
(PID.TID 0000.0001)     Wall clock time:   305.76342153549194
(PID.TID 0000.0001)          No. starts:          64
(PID.TID 0000.0001)           No. stops:          64
(PID.TID 0000.0001)   Seconds in section "COST_AVERAGESFIELDS [THE_MAIN_LOOP]":
(PID.TID 0000.0001)           User time:  0.39999999999781721
(PID.TID 0000.0001)         System time:  2.00000000000000178E-002
(PID.TID 0000.0001)     Wall clock time:  0.42800140380859375
(PID.TID 0000.0001)          No. starts:           8
(PID.TID 0000.0001)           No. stops:           8
(PID.TID 0000.0001)   Seconds in section "PROFILES_INLOOP    [THE_MAIN_LOOP]":
(PID.TID 0000.0001)           User time:  2.00000000004365575E-002
(PID.TID 0000.0001)         System time:   0.0000000000000000
(PID.TID 0000.0001)     Wall clock time:  1.14090442657470703E-002
(PID.TID 0000.0001)          No. starts:           8
(PID.TID 0000.0001)           No. stops:           8
(PID.TID 0000.0001)   Seconds in section "ECCO_COST_DRIVER   [THE_MAIN_LOOP]":
(PID.TID 0000.0001)           User time:   4.9600000000018554
(PID.TID 0000.0001)         System time:  0.34000000000000030
(PID.TID 0000.0001)     Wall clock time:   5.3141248226165771
(PID.TID 0000.0001)          No. starts:           8
(PID.TID 0000.0001)           No. stops:           8
(PID.TID 0000.0001)   Seconds in section "COST_FORCING       [ECCO SPIN-DOWN]":
(PID.TID 0000.0001)           User time:  6.00000000013096724E-002
(PID.TID 0000.0001)         System time:   0.0000000000000000
(PID.TID 0000.0001)     Wall clock time:  6.09080791473388672E-002
(PID.TID 0000.0001)          No. starts:           8
(PID.TID 0000.0001)           No. stops:           8
(PID.TID 0000.0001)   Seconds in section "COST_HYD           [ECCO SPIN-DOWN]":
(PID.TID 0000.0001)           User time:   4.3999999999996362
(PID.TID 0000.0001)         System time:  0.33000000000000007
(PID.TID 0000.0001)     Wall clock time:   4.7602970600128174
(PID.TID 0000.0001)          No. starts:           8
(PID.TID 0000.0001)           No. stops:           8
(PID.TID 0000.0001)   Seconds in section "SEAICE_COST_DRIVER [ECCO SPIN-DOWN]":
(PID.TID 0000.0001)           User time:   0.0000000000000000
(PID.TID 0000.0001)         System time:   0.0000000000000000
(PID.TID 0000.0001)     Wall clock time:  7.89165496826171875E-005
(PID.TID 0000.0001)          No. starts:           8
(PID.TID 0000.0001)           No. stops:           8
(PID.TID 0000.0001)   Seconds in section "COST_INTERNAL_PARAMS  [ECCO SPIN-DOWN]":
(PID.TID 0000.0001)           User time:  0.50000000000090949
(PID.TID 0000.0001)         System time:  1.00000000000002309E-002
(PID.TID 0000.0001)     Wall clock time:  0.49189805984497070
(PID.TID 0000.0001)          No. starts:           8
(PID.TID 0000.0001)           No. stops:           8
(PID.TID 0000.0001)   Seconds in section "COST_GENCOST_ALL    [ECCO SPIN-DOWN]":
(PID.TID 0000.0001)           User time:   0.0000000000000000
(PID.TID 0000.0001)         System time:   0.0000000000000000
(PID.TID 0000.0001)     Wall clock time:  1.25646591186523438E-004
(PID.TID 0000.0001)          No. starts:           8
(PID.TID 0000.0001)           No. stops:           8
(PID.TID 0000.0001)   Seconds in section "COST_USERCOST_ALL    [ECCO SPIN-DOWN]":
(PID.TID 0000.0001)           User time:   0.0000000000000000
(PID.TID 0000.0001)         System time:   0.0000000000000000
(PID.TID 0000.0001)     Wall clock time:  8.10623168945312500E-005
(PID.TID 0000.0001)          No. starts:           8
(PID.TID 0000.0001)           No. stops:           8
(PID.TID 0000.0001)   Seconds in section "COST_GENCTRL       [ECCO SPIN-DOWN]":
(PID.TID 0000.0001)           User time:   0.0000000000000000
(PID.TID 0000.0001)         System time:   0.0000000000000000
(PID.TID 0000.0001)     Wall clock time:  8.67843627929687500E-005
(PID.TID 0000.0001)          No. starts:           8
(PID.TID 0000.0001)           No. stops:           8
(PID.TID 0000.0001)   Seconds in section "COST_FINAL         [ADJOINT SPIN-DOWN]":
(PID.TID 0000.0001)           User time:  9.99999999930878403E-003
(PID.TID 0000.0001)         System time:   0.0000000000000000
(PID.TID 0000.0001)     Wall clock time:  9.80091094970703125E-003
(PID.TID 0000.0001)          No. starts:           8
(PID.TID 0000.0001)           No. stops:           8
(PID.TID 0000.0001) // ======================================================
(PID.TID 0000.0001) // Tile <-> Tile communication statistics
(PID.TID 0000.0001) // ======================================================
(PID.TID 0000.0001) // o Tile number: 000001
(PID.TID 0000.0001) //         No. X exchanges =              0
(PID.TID 0000.0001) //            Max. X spins =              0
(PID.TID 0000.0001) //            Min. X spins =     1000000000
(PID.TID 0000.0001) //          Total. X spins =              0
(PID.TID 0000.0001) //            Avg. X spins =       0.00E+00
(PID.TID 0000.0001) //         No. Y exchanges =              0
(PID.TID 0000.0001) //            Max. Y spins =              0
(PID.TID 0000.0001) //            Min. Y spins =     1000000000
(PID.TID 0000.0001) //          Total. Y spins =              0
(PID.TID 0000.0001) //            Avg. Y spins =       0.00E+00
(PID.TID 0000.0001) // o Tile number: 000002
(PID.TID 0000.0001) //         No. X exchanges =              0
(PID.TID 0000.0001) //            Max. X spins =              0
(PID.TID 0000.0001) //            Min. X spins =     1000000000
(PID.TID 0000.0001) //          Total. X spins =              0
(PID.TID 0000.0001) //            Avg. X spins =       0.00E+00
(PID.TID 0000.0001) //         No. Y exchanges =              0
(PID.TID 0000.0001) //            Max. Y spins =              0
(PID.TID 0000.0001) //            Min. Y spins =     1000000000
(PID.TID 0000.0001) //          Total. Y spins =              0
(PID.TID 0000.0001) //            Avg. Y spins =       0.00E+00
(PID.TID 0000.0001) // o Tile number: 000003
(PID.TID 0000.0001) //         No. X exchanges =              0
(PID.TID 0000.0001) //            Max. X spins =              0
(PID.TID 0000.0001) //            Min. X spins =     1000000000
(PID.TID 0000.0001) //          Total. X spins =              0
(PID.TID 0000.0001) //            Avg. X spins =       0.00E+00
(PID.TID 0000.0001) //         No. Y exchanges =              0
(PID.TID 0000.0001) //            Max. Y spins =              0
(PID.TID 0000.0001) //            Min. Y spins =     1000000000
(PID.TID 0000.0001) //          Total. Y spins =              0
(PID.TID 0000.0001) //            Avg. Y spins =       0.00E+00
(PID.TID 0000.0001) // o Tile number: 000004
(PID.TID 0000.0001) //         No. X exchanges =              0
(PID.TID 0000.0001) //            Max. X spins =              0
(PID.TID 0000.0001) //            Min. X spins =     1000000000
(PID.TID 0000.0001) //          Total. X spins =              0
(PID.TID 0000.0001) //            Avg. X spins =       0.00E+00
(PID.TID 0000.0001) //         No. Y exchanges =              0
(PID.TID 0000.0001) //            Max. Y spins =              0
(PID.TID 0000.0001) //            Min. Y spins =     1000000000
(PID.TID 0000.0001) //          Total. Y spins =              0
(PID.TID 0000.0001) //            Avg. Y spins =       0.00E+00
(PID.TID 0000.0001) // o Tile number: 000005
(PID.TID 0000.0001) //         No. X exchanges =              0
(PID.TID 0000.0001) //            Max. X spins =              0
(PID.TID 0000.0001) //            Min. X spins =     1000000000
(PID.TID 0000.0001) //          Total. X spins =              0
(PID.TID 0000.0001) //            Avg. X spins =       0.00E+00
(PID.TID 0000.0001) //         No. Y exchanges =              0
(PID.TID 0000.0001) //            Max. Y spins =              0
(PID.TID 0000.0001) //            Min. Y spins =     1000000000
(PID.TID 0000.0001) //          Total. Y spins =              0
(PID.TID 0000.0001) //            Avg. Y spins =       0.00E+00
(PID.TID 0000.0001) // o Tile number: 000006
(PID.TID 0000.0001) //         No. X exchanges =              0
(PID.TID 0000.0001) //            Max. X spins =              0
(PID.TID 0000.0001) //            Min. X spins =     1000000000
(PID.TID 0000.0001) //          Total. X spins =              0
(PID.TID 0000.0001) //            Avg. X spins =       0.00E+00
(PID.TID 0000.0001) //         No. Y exchanges =              0
(PID.TID 0000.0001) //            Max. Y spins =              0
(PID.TID 0000.0001) //            Min. Y spins =     1000000000
(PID.TID 0000.0001) //          Total. Y spins =              0
(PID.TID 0000.0001) //            Avg. Y spins =       0.00E+00
(PID.TID 0000.0001) // o Tile number: 000007
(PID.TID 0000.0001) //         No. X exchanges =              0
(PID.TID 0000.0001) //            Max. X spins =              0
(PID.TID 0000.0001) //            Min. X spins =     1000000000
(PID.TID 0000.0001) //          Total. X spins =              0
(PID.TID 0000.0001) //            Avg. X spins =       0.00E+00
(PID.TID 0000.0001) //         No. Y exchanges =              0
(PID.TID 0000.0001) //            Max. Y spins =              0
(PID.TID 0000.0001) //            Min. Y spins =     1000000000
(PID.TID 0000.0001) //          Total. Y spins =              0
(PID.TID 0000.0001) //            Avg. Y spins =       0.00E+00
(PID.TID 0000.0001) // o Tile number: 000008
(PID.TID 0000.0001) //         No. X exchanges =              0
(PID.TID 0000.0001) //            Max. X spins =              0
(PID.TID 0000.0001) //            Min. X spins =     1000000000
(PID.TID 0000.0001) //          Total. X spins =              0
(PID.TID 0000.0001) //            Avg. X spins =       0.00E+00
(PID.TID 0000.0001) //         No. Y exchanges =              0
(PID.TID 0000.0001) //            Max. Y spins =              0
(PID.TID 0000.0001) //            Min. Y spins =     1000000000
(PID.TID 0000.0001) //          Total. Y spins =              0
(PID.TID 0000.0001) //            Avg. Y spins =       0.00E+00
(PID.TID 0000.0001) // o Tile number: 000009
(PID.TID 0000.0001) //         No. X exchanges =              0
(PID.TID 0000.0001) //            Max. X spins =              0
(PID.TID 0000.0001) //            Min. X spins =     1000000000
(PID.TID 0000.0001) //          Total. X spins =              0
(PID.TID 0000.0001) //            Avg. X spins =       0.00E+00
(PID.TID 0000.0001) //         No. Y exchanges =              0
(PID.TID 0000.0001) //            Max. Y spins =              0
(PID.TID 0000.0001) //            Min. Y spins =     1000000000
(PID.TID 0000.0001) //          Total. Y spins =              0
(PID.TID 0000.0001) //            Avg. Y spins =       0.00E+00
(PID.TID 0000.0001) // o Tile number: 000010
(PID.TID 0000.0001) //         No. X exchanges =              0
(PID.TID 0000.0001) //            Max. X spins =              0
(PID.TID 0000.0001) //            Min. X spins =     1000000000
(PID.TID 0000.0001) //          Total. X spins =              0
(PID.TID 0000.0001) //            Avg. X spins =       0.00E+00
(PID.TID 0000.0001) //         No. Y exchanges =              0
(PID.TID 0000.0001) //            Max. Y spins =              0
(PID.TID 0000.0001) //            Min. Y spins =     1000000000
(PID.TID 0000.0001) //          Total. Y spins =              0
(PID.TID 0000.0001) //            Avg. Y spins =       0.00E+00
(PID.TID 0000.0001) // o Tile number: 000011
(PID.TID 0000.0001) //         No. X exchanges =              0
(PID.TID 0000.0001) //            Max. X spins =              0
(PID.TID 0000.0001) //            Min. X spins =     1000000000
(PID.TID 0000.0001) //          Total. X spins =              0
(PID.TID 0000.0001) //            Avg. X spins =       0.00E+00
(PID.TID 0000.0001) //         No. Y exchanges =              0
(PID.TID 0000.0001) //            Max. Y spins =              0
(PID.TID 0000.0001) //            Min. Y spins =     1000000000
(PID.TID 0000.0001) //          Total. Y spins =              0
(PID.TID 0000.0001) //            Avg. Y spins =       0.00E+00
(PID.TID 0000.0001) // o Tile number: 000012
(PID.TID 0000.0001) //         No. X exchanges =              0
(PID.TID 0000.0001) //            Max. X spins =              0
(PID.TID 0000.0001) //            Min. X spins =     1000000000
(PID.TID 0000.0001) //          Total. X spins =              0
(PID.TID 0000.0001) //            Avg. X spins =       0.00E+00
(PID.TID 0000.0001) //         No. Y exchanges =              0
(PID.TID 0000.0001) //            Max. Y spins =              0
(PID.TID 0000.0001) //            Min. Y spins =     1000000000
(PID.TID 0000.0001) //          Total. Y spins =              0
(PID.TID 0000.0001) //            Avg. Y spins =       0.00E+00
(PID.TID 0000.0001) // o Tile number: 000013
(PID.TID 0000.0001) //         No. X exchanges =              0
(PID.TID 0000.0001) //            Max. X spins =              0
(PID.TID 0000.0001) //            Min. X spins =     1000000000
(PID.TID 0000.0001) //          Total. X spins =              0
(PID.TID 0000.0001) //            Avg. X spins =       0.00E+00
(PID.TID 0000.0001) //         No. Y exchanges =              0
(PID.TID 0000.0001) //            Max. Y spins =              0
(PID.TID 0000.0001) //            Min. Y spins =     1000000000
(PID.TID 0000.0001) //          Total. Y spins =              0
(PID.TID 0000.0001) //            Avg. Y spins =       0.00E+00
(PID.TID 0000.0001) // o Tile number: 000014
(PID.TID 0000.0001) //         No. X exchanges =              0
(PID.TID 0000.0001) //            Max. X spins =              0
(PID.TID 0000.0001) //            Min. X spins =     1000000000
(PID.TID 0000.0001) //          Total. X spins =              0
(PID.TID 0000.0001) //            Avg. X spins =       0.00E+00
(PID.TID 0000.0001) //         No. Y exchanges =              0
(PID.TID 0000.0001) //            Max. Y spins =              0
(PID.TID 0000.0001) //            Min. Y spins =     1000000000
(PID.TID 0000.0001) //          Total. Y spins =              0
(PID.TID 0000.0001) //            Avg. Y spins =       0.00E+00
(PID.TID 0000.0001) // o Tile number: 000015
(PID.TID 0000.0001) //         No. X exchanges =              0
(PID.TID 0000.0001) //            Max. X spins =              0
(PID.TID 0000.0001) //            Min. X spins =     1000000000
(PID.TID 0000.0001) //          Total. X spins =              0
(PID.TID 0000.0001) //            Avg. X spins =       0.00E+00
(PID.TID 0000.0001) //         No. Y exchanges =              0
(PID.TID 0000.0001) //            Max. Y spins =              0
(PID.TID 0000.0001) //            Min. Y spins =     1000000000
(PID.TID 0000.0001) //          Total. Y spins =              0
(PID.TID 0000.0001) //            Avg. Y spins =       0.00E+00
(PID.TID 0000.0001) // o Tile number: 000016
(PID.TID 0000.0001) //         No. X exchanges =              0
(PID.TID 0000.0001) //            Max. X spins =              0
(PID.TID 0000.0001) //            Min. X spins =     1000000000
(PID.TID 0000.0001) //          Total. X spins =              0
(PID.TID 0000.0001) //            Avg. X spins =       0.00E+00
(PID.TID 0000.0001) //         No. Y exchanges =              0
(PID.TID 0000.0001) //            Max. Y spins =              0
(PID.TID 0000.0001) //            Min. Y spins =     1000000000
(PID.TID 0000.0001) //          Total. Y spins =              0
(PID.TID 0000.0001) //            Avg. Y spins =       0.00E+00
(PID.TID 0000.0001) // o Tile number: 000017
(PID.TID 0000.0001) //         No. X exchanges =              0
(PID.TID 0000.0001) //            Max. X spins =              0
(PID.TID 0000.0001) //            Min. X spins =     1000000000
(PID.TID 0000.0001) //          Total. X spins =              0
(PID.TID 0000.0001) //            Avg. X spins =       0.00E+00
(PID.TID 0000.0001) //         No. Y exchanges =              0
(PID.TID 0000.0001) //            Max. Y spins =              0
(PID.TID 0000.0001) //            Min. Y spins =     1000000000
(PID.TID 0000.0001) //          Total. Y spins =              0
(PID.TID 0000.0001) //            Avg. Y spins =       0.00E+00
(PID.TID 0000.0001) // o Tile number: 000018
(PID.TID 0000.0001) //         No. X exchanges =              0
(PID.TID 0000.0001) //            Max. X spins =              0
(PID.TID 0000.0001) //            Min. X spins =     1000000000
(PID.TID 0000.0001) //          Total. X spins =              0
(PID.TID 0000.0001) //            Avg. X spins =       0.00E+00
(PID.TID 0000.0001) //         No. Y exchanges =              0
(PID.TID 0000.0001) //            Max. Y spins =              0
(PID.TID 0000.0001) //            Min. Y spins =     1000000000
(PID.TID 0000.0001) //          Total. Y spins =              0
(PID.TID 0000.0001) //            Avg. Y spins =       0.00E+00
(PID.TID 0000.0001) // o Tile number: 000019
(PID.TID 0000.0001) //         No. X exchanges =              0
(PID.TID 0000.0001) //            Max. X spins =              0
(PID.TID 0000.0001) //            Min. X spins =     1000000000
(PID.TID 0000.0001) //          Total. X spins =              0
(PID.TID 0000.0001) //            Avg. X spins =       0.00E+00
(PID.TID 0000.0001) //         No. Y exchanges =              0
(PID.TID 0000.0001) //            Max. Y spins =              0
(PID.TID 0000.0001) //            Min. Y spins =     1000000000
(PID.TID 0000.0001) //          Total. Y spins =              0
(PID.TID 0000.0001) //            Avg. Y spins =       0.00E+00
(PID.TID 0000.0001) // o Tile number: 000020
(PID.TID 0000.0001) //         No. X exchanges =              0
(PID.TID 0000.0001) //            Max. X spins =              0
(PID.TID 0000.0001) //            Min. X spins =     1000000000
(PID.TID 0000.0001) //          Total. X spins =              0
(PID.TID 0000.0001) //            Avg. X spins =       0.00E+00
(PID.TID 0000.0001) //         No. Y exchanges =              0
(PID.TID 0000.0001) //            Max. Y spins =              0
(PID.TID 0000.0001) //            Min. Y spins =     1000000000
(PID.TID 0000.0001) //          Total. Y spins =              0
(PID.TID 0000.0001) //            Avg. Y spins =       0.00E+00
(PID.TID 0000.0001) // o Tile number: 000021
(PID.TID 0000.0001) //         No. X exchanges =              0
(PID.TID 0000.0001) //            Max. X spins =              0
(PID.TID 0000.0001) //            Min. X spins =     1000000000
(PID.TID 0000.0001) //          Total. X spins =              0
(PID.TID 0000.0001) //            Avg. X spins =       0.00E+00
(PID.TID 0000.0001) //         No. Y exchanges =              0
(PID.TID 0000.0001) //            Max. Y spins =              0
(PID.TID 0000.0001) //            Min. Y spins =     1000000000
(PID.TID 0000.0001) //          Total. Y spins =              0
(PID.TID 0000.0001) //            Avg. Y spins =       0.00E+00
(PID.TID 0000.0001) // o Tile number: 000022
(PID.TID 0000.0001) //         No. X exchanges =              0
(PID.TID 0000.0001) //            Max. X spins =              0
(PID.TID 0000.0001) //            Min. X spins =     1000000000
(PID.TID 0000.0001) //          Total. X spins =              0
(PID.TID 0000.0001) //            Avg. X spins =       0.00E+00
(PID.TID 0000.0001) //         No. Y exchanges =              0
(PID.TID 0000.0001) //            Max. Y spins =              0
(PID.TID 0000.0001) //            Min. Y spins =     1000000000
(PID.TID 0000.0001) //          Total. Y spins =              0
(PID.TID 0000.0001) //            Avg. Y spins =       0.00E+00
(PID.TID 0000.0001) // o Tile number: 000023
(PID.TID 0000.0001) //         No. X exchanges =              0
(PID.TID 0000.0001) //            Max. X spins =              0
(PID.TID 0000.0001) //            Min. X spins =     1000000000
(PID.TID 0000.0001) //          Total. X spins =              0
(PID.TID 0000.0001) //            Avg. X spins =       0.00E+00
(PID.TID 0000.0001) //         No. Y exchanges =              0
(PID.TID 0000.0001) //            Max. Y spins =              0
(PID.TID 0000.0001) //            Min. Y spins =     1000000000
(PID.TID 0000.0001) //          Total. Y spins =              0
(PID.TID 0000.0001) //            Avg. Y spins =       0.00E+00
(PID.TID 0000.0001) // o Tile number: 000024
(PID.TID 0000.0001) //         No. X exchanges =              0
(PID.TID 0000.0001) //            Max. X spins =              0
(PID.TID 0000.0001) //            Min. X spins =     1000000000
(PID.TID 0000.0001) //          Total. X spins =              0
(PID.TID 0000.0001) //            Avg. X spins =       0.00E+00
(PID.TID 0000.0001) //         No. Y exchanges =              0
(PID.TID 0000.0001) //            Max. Y spins =              0
(PID.TID 0000.0001) //            Min. Y spins =     1000000000
(PID.TID 0000.0001) //          Total. Y spins =              0
(PID.TID 0000.0001) //            Avg. Y spins =       0.00E+00
(PID.TID 0000.0001) // o Thread number: 000001
(PID.TID 0000.0001) //            No. barriers =         388526
(PID.TID 0000.0001) //      Max. barrier spins =              1
(PID.TID 0000.0001) //      Min. barrier spins =              1
(PID.TID 0000.0001) //     Total barrier spins =         388526
(PID.TID 0000.0001) //      Avg. barrier spins =       1.00E+00
PROGRAM MAIN: Execution ended Normally
