(PID.TID 0000.0001) 
(PID.TID 0000.0001) // ======================================================
(PID.TID 0000.0001) //                      MITgcm UV
(PID.TID 0000.0001) //                      =========
(PID.TID 0000.0001) // ======================================================
(PID.TID 0000.0001) // execution environment starting up...
(PID.TID 0000.0001) 
(PID.TID 0000.0001) // MITgcmUV version:  checkpoint63r
(PID.TID 0000.0001) // Build user:        gforget
(PID.TID 0000.0001) // Build host:        baudelaire
(PID.TID 0000.0001) // Build date:        Wed Sep  5 10:59:15 EDT 2012
(PID.TID 0000.0001) 
(PID.TID 0000.0001) // =======================================================
(PID.TID 0000.0001) // Execution Environment parameter file "eedata"
(PID.TID 0000.0001) // =======================================================
(PID.TID 0000.0001) ># Example "eedata" file
(PID.TID 0000.0001) ># Lines beginning "#" are comments
(PID.TID 0000.0001) ># nTx - No. threads per process in X
(PID.TID 0000.0001) ># nTy - No. threads per process in Y
(PID.TID 0000.0001) > &EEPARMS
(PID.TID 0000.0001) > useCubedSphereExchange=.TRUE.,
(PID.TID 0000.0001) > nTx=1,
(PID.TID 0000.0001) > nTy=1,
(PID.TID 0000.0001) > /
(PID.TID 0000.0001) ># Note: Some systems use & as the
(PID.TID 0000.0001) ># namelist terminator. Other systems
(PID.TID 0000.0001) ># use a / character (as shown here).
(PID.TID 0000.0001) 
(PID.TID 0000.0001) // =======================================================
(PID.TID 0000.0001) // Computational Grid Specification ( see files "SIZE.h" )
(PID.TID 0000.0001) //                                  ( and "eedata"       )
(PID.TID 0000.0001) // =======================================================
(PID.TID 0000.0001)      nPx =    1 ; /* No. processes in X */
(PID.TID 0000.0001)      nPy =    1 ; /* No. processes in Y */
(PID.TID 0000.0001)      nSx =   24 ; /* No. tiles in X per process */
(PID.TID 0000.0001)      nSy =    1 ; /* No. tiles in Y per process */
(PID.TID 0000.0001)      sNx =   16 ; /* Tile size in X */
(PID.TID 0000.0001)      sNy =   16 ; /* Tile size in Y */
(PID.TID 0000.0001)      OLx =    4 ; /* Tile overlap distance in X */
(PID.TID 0000.0001)      OLy =    4 ; /* Tile overlap distance in Y */
(PID.TID 0000.0001)      nTx =    1 ; /* No. threads in X per process */
(PID.TID 0000.0001)      nTy =    1 ; /* No. threads in Y per process */
(PID.TID 0000.0001)       Nr =   50 ; /* No. levels in the vertical   */
(PID.TID 0000.0001)       Nx =  384 ; /* Total domain size in X ( = nPx*nSx*sNx ) */
(PID.TID 0000.0001)       Ny =   16 ; /* Total domain size in Y ( = nPy*nSy*sNy ) */
(PID.TID 0000.0001)   nTiles =   24 ; /* Total no. tiles per process ( = nSx*nSy ) */
(PID.TID 0000.0001)   nProcs =    1 ; /* Total no. processes ( = nPx*nPy ) */
(PID.TID 0000.0001) nThreads =    1 ; /* Total no. threads per process ( = nTx*nTy ) */
(PID.TID 0000.0001) usingMPI =    F ; /* Flag used to control whether MPI is in use */
(PID.TID 0000.0001)                   /*  note: To execute a program with MPI calls */
(PID.TID 0000.0001)                   /*  it must be launched appropriately e.g     */
(PID.TID 0000.0001)                   /*  "mpirun -np 64 ......"                    */
(PID.TID 0000.0001) useCoupler=    F ;/* Flag used to control communications with   */
(PID.TID 0000.0001)                   /*  other model components, through a coupler */
(PID.TID 0000.0001) debugMode =    F ; /* print debug msg. (sequence of S/R calls)  */
(PID.TID 0000.0001) printMapIncludesZeros=    F ; /* print zeros in Std.Output maps */
(PID.TID 0000.0001) maxLengthPrt1D=   65 /* maxLength of 1D array printed to StdOut */
(PID.TID 0000.0001) 
(PID.TID 0000.0001) // ======================================================
(PID.TID 0000.0001) // Mapping of tiles to threads
(PID.TID 0000.0001) // ======================================================
(PID.TID 0000.0001) // -o- Thread   1, tiles (   1:  24,   1:   1)
(PID.TID 0000.0001) 
(PID.TID 0000.0001) W2_READPARMS: opening data.exch2
(PID.TID 0000.0001)  OPEN_COPY_DATA_FILE: opening file data.exch2
(PID.TID 0000.0001) // =======================================================
(PID.TID 0000.0001) // Parameter file "data.exch2"
(PID.TID 0000.0001) // =======================================================
(PID.TID 0000.0001) ># EXCH2 Package: Wrapper-2 User Choice
(PID.TID 0000.0001) >#--------------------
(PID.TID 0000.0001) >#  preDefTopol   :: pre-defined Topology selector:
(PID.TID 0000.0001) >#                :: = 0 : topology defined from processing "data.exch2";
(PID.TID 0000.0001) >#                :: = 1 : simple, single facet topology;
(PID.TID 0000.0001) >#                :: = 2 : customized topology (w2_set_myown_facets)
(PID.TID 0000.0001) >#                :: = 3 : 6-facet Cube (3 face-dims: nRed, nGreen, nBlue).
(PID.TID 0000.0001) >#  dimsFacets    :: facet pair of dimensions (n1x,n1y, n2x,n2y ...)
(PID.TID 0000.0001) >#  facetEdgeLink :: Face-Edge connectivity map:
(PID.TID 0000.0001) >#    facetEdgeLink(i,j)=XX.1 : face(j)-edge(i) (i=1,2,3,4 <==> N,S,E,W)
(PID.TID 0000.0001) >#    is connected to Northern edge of face "XX" ; similarly,
(PID.TID 0000.0001) >#    = XX.2 : to Southern.E, XX.3 = Eastern.E, XX.4 = Western.E of face "XX"
(PID.TID 0000.0001) >#  blankList     :: List of "blank" tiles
(PID.TID 0000.0001) >#  W2_mapIO      :: global map IO selector (-1 = old type ; 0 = 1 long line in X
(PID.TID 0000.0001) >#                :: 1 = compact, mostly in Y dir)
(PID.TID 0000.0001) >#  W2_printMsg   :: option for information messages printing
(PID.TID 0000.0001) >#                :: <0 : write to log file ; =0 : minimum print ;
(PID.TID 0000.0001) >#                :: =1 : no duplicated print ; =2 : all processes do print
(PID.TID 0000.0001) >#--------------------
(PID.TID 0000.0001) > &W2_EXCH2_PARM01
(PID.TID 0000.0001) >  W2_printMsg= 0,
(PID.TID 0000.0001) >  W2_mapIO   = 1,
(PID.TID 0000.0001) >  preDefTopol=0,
(PID.TID 0000.0001) >  dimsFacets(1:12) = 32, 32, 32, 32, 32, 32, 32, 32, 32, 32, 32, 32,
(PID.TID 0000.0001) >  facetEdgeLink(1:4,1)= 3.4, 6.1, 2.4, 5.1,
(PID.TID 0000.0001) >  facetEdgeLink(1:4,2)= 3.2, 6.3, 4.2, 1.3,
(PID.TID 0000.0001) >  facetEdgeLink(1:4,3)= 5.4, 2.1, 4.4, 1.1,
(PID.TID 0000.0001) >  facetEdgeLink(1:4,4)= 5.2, 2.3, 6.2, 3.3,
(PID.TID 0000.0001) >  facetEdgeLink(1:4,5)= 1.4, 4.1, 6.4, 3.1,
(PID.TID 0000.0001) >  facetEdgeLink(1:4,6)= 1.2, 4.3, 2.2, 5.3,
(PID.TID 0000.0001) >#when using bathy_north.bin:
(PID.TID 0000.0001) >#  blankList=1,2,5,6,14,16,18,20,21,22,23,24,
(PID.TID 0000.0001) >#when using bathy_south.bin:
(PID.TID 0000.0001) ># blankList=3,4,7,8,9,10,11,12,13,15,17,19,
(PID.TID 0000.0001) > /
(PID.TID 0000.0001) 
(PID.TID 0000.0001) W2_READPARMS: finished reading data.exch2
(PID.TID 0000.0001) W2_useE2ioLayOut=    T ;/* T: use Exch2 glob IO map; F: use model default */
(PID.TID 0000.0001) W2_mapIO        =   1 ; /* select option for Exch2 global-IO map */
(PID.TID 0000.0001) W2_printMsg     =   0 ; /* select option for printing information */
(PID.TID 0000.0001) ===== Start setting W2 TOPOLOGY:
(PID.TID 0000.0001) W2_E2SETUP: number of Active Tiles =      24
(PID.TID 0000.0001) W2_E2SETUP: number of Blank Tiles  =       0
(PID.TID 0000.0001) W2_E2SETUP: Total number of Tiles  =      24
(PID.TID 0000.0001) W2_SET_GEN_FACETS: preDefTopol=  0 selected
(PID.TID 0000.0001) W2_SET_GEN_FACETS: Number of facets =  6 (inferred from "dimsFacets")
(PID.TID 0000.0001) W2_E2SETUP: Total number of Facets =       6
(PID.TID 0000.0001) W2_SET_F2F_INDEX: index matrix for connected Facet-Edges:
(PID.TID 0000.0001) W2_SET_MAP_TILES: tile mapping within facet and global Map:
(PID.TID 0000.0001)  W2_mapIO =   32 (=    2*sNx)
(PID.TID 0000.0001)  Global Map (IO): X-size=      32 , Y-size=     192
(PID.TID 0000.0001) W2_SET_MAP_TILES: tile offset within facet and global Map:
- facet  1 : X-size=    32 , Y-size=    32 ;    4 tiles (Tx,Ty=   2,   2)
- facet  2 : X-size=    32 , Y-size=    32 ;    4 tiles (Tx,Ty=   2,   2)
- facet  3 : X-size=    32 , Y-size=    32 ;    4 tiles (Tx,Ty=   2,   2)
- facet  4 : X-size=    32 , Y-size=    32 ;    4 tiles (Tx,Ty=   2,   2)
- facet  5 : X-size=    32 , Y-size=    32 ;    4 tiles (Tx,Ty=   2,   2)
- facet  6 : X-size=    32 , Y-size=    32 ;    4 tiles (Tx,Ty=   2,   2)
(PID.TID 0000.0001) W2_SET_MAP_CUMSUM: setting Facet Matrix for CUMUL-SUM
(PID.TID 0000.0001) W2_SET_MAP_CUMSUM: set    5 /   6 active facets (pass,type=   1, 1)
 Facet Matrix for CUMUL-SUM (nFacets=   6, nActive=   6 ):
- facet  1 :  0  0 ,  0  0 ,  0  0 ,  0  0 ,  0  0 ,  0  0 ,
- facet  2 :  1  0 ,  0  0 ,  0  0 ,  0  0 ,  0  0 ,  0  0 ,
- facet  3 :  1  0 ,  0  1 ,  0  0 ,  0  0 ,  0  0 ,  0  0 ,
- facet  4 :  1  0 ,  0  1 ,  1  0 ,  0  0 ,  0  0 ,  0  0 ,
- facet  5 :  1  0 ,  0  1 ,  1  0 ,  0  1 ,  0  0 ,  0  0 ,
- facet  6 :  1  0 ,  0  1 ,  1  0 ,  0  1 ,  1  0 ,  0  0 ,
 missing-corner Tile for CUMUL-SUM (nTiles=    24 ): W2_tMC1=     3 , W2_tMC2=     6
(PID.TID 0000.0001) W2_SET_MAP_CUMSUM: done (skip Tile Matrix setting)
(PID.TID 0000.0001) W2_SET_TILE2TILES: tile neighbours and index connection:
(PID.TID 0000.0001) current Max.Nb.Neighbours (e.g., on tile    1 ) =  4
(PID.TID 0000.0001) ===== W2 TILE TOPOLOGY =====
(PID.TID 0000.0001)  TILE:     1 , Nb of Neighbours =  4
(PID.TID 0000.0001)     NEIGHBOUR  1 = TILE    3 (n=  2) Comm = PUT (PROC=    1)
(PID.TID 0000.0001)     NEIGHBOUR  2 = TILE   23 (n=  1) Comm = PUT (PROC=    1)
(PID.TID 0000.0001)     NEIGHBOUR  3 = TILE    2 (n=  4) Comm = PUT (PROC=    1)
(PID.TID 0000.0001)     NEIGHBOUR  4 = TILE   20 (n=  1) Comm = PUT (PROC=    1)
(PID.TID 0000.0001)  TILE:     2 , Nb of Neighbours =  4
(PID.TID 0000.0001)     NEIGHBOUR  1 = TILE    4 (n=  2) Comm = PUT (PROC=    1)
(PID.TID 0000.0001)     NEIGHBOUR  2 = TILE   24 (n=  1) Comm = PUT (PROC=    1)
(PID.TID 0000.0001)     NEIGHBOUR  3 = TILE    5 (n=  4) Comm = PUT (PROC=    1)
(PID.TID 0000.0001)     NEIGHBOUR  4 = TILE    1 (n=  3) Comm = PUT (PROC=    1)
(PID.TID 0000.0001)  TILE:     3 , Nb of Neighbours =  4
(PID.TID 0000.0001)     NEIGHBOUR  1 = TILE   11 (n=  4) Comm = PUT (PROC=    1)
(PID.TID 0000.0001)     NEIGHBOUR  2 = TILE    1 (n=  1) Comm = PUT (PROC=    1)
(PID.TID 0000.0001)     NEIGHBOUR  3 = TILE    4 (n=  4) Comm = PUT (PROC=    1)
(PID.TID 0000.0001)     NEIGHBOUR  4 = TILE   19 (n=  1) Comm = PUT (PROC=    1)
(PID.TID 0000.0001)  TILE:     4 , Nb of Neighbours =  4
(PID.TID 0000.0001)     NEIGHBOUR  1 = TILE    9 (n=  4) Comm = PUT (PROC=    1)
(PID.TID 0000.0001)     NEIGHBOUR  2 = TILE    2 (n=  1) Comm = PUT (PROC=    1)
(PID.TID 0000.0001)     NEIGHBOUR  3 = TILE    7 (n=  4) Comm = PUT (PROC=    1)
(PID.TID 0000.0001)     NEIGHBOUR  4 = TILE    3 (n=  3) Comm = PUT (PROC=    1)
(PID.TID 0000.0001)  TILE:     5 , Nb of Neighbours =  4
(PID.TID 0000.0001)     NEIGHBOUR  1 = TILE    7 (n=  2) Comm = PUT (PROC=    1)
(PID.TID 0000.0001)     NEIGHBOUR  2 = TILE   24 (n=  3) Comm = PUT (PROC=    1)
(PID.TID 0000.0001)     NEIGHBOUR  3 = TILE    6 (n=  4) Comm = PUT (PROC=    1)
(PID.TID 0000.0001)     NEIGHBOUR  4 = TILE    2 (n=  3) Comm = PUT (PROC=    1)
(PID.TID 0000.0001)  TILE:     6 , Nb of Neighbours =  4
(PID.TID 0000.0001)     NEIGHBOUR  1 = TILE    8 (n=  2) Comm = PUT (PROC=    1)
(PID.TID 0000.0001)     NEIGHBOUR  2 = TILE   22 (n=  3) Comm = PUT (PROC=    1)
(PID.TID 0000.0001)     NEIGHBOUR  3 = TILE   14 (n=  2) Comm = PUT (PROC=    1)
(PID.TID 0000.0001)     NEIGHBOUR  4 = TILE    5 (n=  3) Comm = PUT (PROC=    1)
(PID.TID 0000.0001)  TILE:     7 , Nb of Neighbours =  4
(PID.TID 0000.0001)     NEIGHBOUR  1 = TILE    9 (n=  2) Comm = PUT (PROC=    1)
(PID.TID 0000.0001)     NEIGHBOUR  2 = TILE    5 (n=  1) Comm = PUT (PROC=    1)
(PID.TID 0000.0001)     NEIGHBOUR  3 = TILE    8 (n=  4) Comm = PUT (PROC=    1)
(PID.TID 0000.0001)     NEIGHBOUR  4 = TILE    4 (n=  3) Comm = PUT (PROC=    1)
(PID.TID 0000.0001)  TILE:     8 , Nb of Neighbours =  4
(PID.TID 0000.0001)     NEIGHBOUR  1 = TILE   10 (n=  2) Comm = PUT (PROC=    1)
(PID.TID 0000.0001)     NEIGHBOUR  2 = TILE    6 (n=  1) Comm = PUT (PROC=    1)
(PID.TID 0000.0001)     NEIGHBOUR  3 = TILE   13 (n=  2) Comm = PUT (PROC=    1)
(PID.TID 0000.0001)     NEIGHBOUR  4 = TILE    7 (n=  3) Comm = PUT (PROC=    1)
(PID.TID 0000.0001)  TILE:     9 , Nb of Neighbours =  4
(PID.TID 0000.0001)     NEIGHBOUR  1 = TILE   11 (n=  2) Comm = PUT (PROC=    1)
(PID.TID 0000.0001)     NEIGHBOUR  2 = TILE    7 (n=  1) Comm = PUT (PROC=    1)
(PID.TID 0000.0001)     NEIGHBOUR  3 = TILE   10 (n=  4) Comm = PUT (PROC=    1)
(PID.TID 0000.0001)     NEIGHBOUR  4 = TILE    4 (n=  1) Comm = PUT (PROC=    1)
(PID.TID 0000.0001)  TILE:    10 , Nb of Neighbours =  4
(PID.TID 0000.0001)     NEIGHBOUR  1 = TILE   12 (n=  2) Comm = PUT (PROC=    1)
(PID.TID 0000.0001)     NEIGHBOUR  2 = TILE    8 (n=  1) Comm = PUT (PROC=    1)
(PID.TID 0000.0001)     NEIGHBOUR  3 = TILE   13 (n=  4) Comm = PUT (PROC=    1)
(PID.TID 0000.0001)     NEIGHBOUR  4 = TILE    9 (n=  3) Comm = PUT (PROC=    1)
(PID.TID 0000.0001)  TILE:    11 , Nb of Neighbours =  4
(PID.TID 0000.0001)     NEIGHBOUR  1 = TILE   19 (n=  4) Comm = PUT (PROC=    1)
(PID.TID 0000.0001)     NEIGHBOUR  2 = TILE    9 (n=  1) Comm = PUT (PROC=    1)
(PID.TID 0000.0001)     NEIGHBOUR  3 = TILE   12 (n=  4) Comm = PUT (PROC=    1)
(PID.TID 0000.0001)     NEIGHBOUR  4 = TILE    3 (n=  1) Comm = PUT (PROC=    1)
(PID.TID 0000.0001)  TILE:    12 , Nb of Neighbours =  4
(PID.TID 0000.0001)     NEIGHBOUR  1 = TILE   17 (n=  4) Comm = PUT (PROC=    1)
(PID.TID 0000.0001)     NEIGHBOUR  2 = TILE   10 (n=  1) Comm = PUT (PROC=    1)
(PID.TID 0000.0001)     NEIGHBOUR  3 = TILE   15 (n=  4) Comm = PUT (PROC=    1)
(PID.TID 0000.0001)     NEIGHBOUR  4 = TILE   11 (n=  3) Comm = PUT (PROC=    1)
(PID.TID 0000.0001)  TILE:    13 , Nb of Neighbours =  4
(PID.TID 0000.0001)     NEIGHBOUR  1 = TILE   15 (n=  2) Comm = PUT (PROC=    1)
(PID.TID 0000.0001)     NEIGHBOUR  2 = TILE    8 (n=  3) Comm = PUT (PROC=    1)
(PID.TID 0000.0001)     NEIGHBOUR  3 = TILE   14 (n=  4) Comm = PUT (PROC=    1)
(PID.TID 0000.0001)     NEIGHBOUR  4 = TILE   10 (n=  3) Comm = PUT (PROC=    1)
(PID.TID 0000.0001)  TILE:    14 , Nb of Neighbours =  4
(PID.TID 0000.0001)     NEIGHBOUR  1 = TILE   16 (n=  2) Comm = PUT (PROC=    1)
(PID.TID 0000.0001)     NEIGHBOUR  2 = TILE    6 (n=  3) Comm = PUT (PROC=    1)
(PID.TID 0000.0001)     NEIGHBOUR  3 = TILE   22 (n=  2) Comm = PUT (PROC=    1)
(PID.TID 0000.0001)     NEIGHBOUR  4 = TILE   13 (n=  3) Comm = PUT (PROC=    1)
(PID.TID 0000.0001)  TILE:    15 , Nb of Neighbours =  4
(PID.TID 0000.0001)     NEIGHBOUR  1 = TILE   17 (n=  2) Comm = PUT (PROC=    1)
(PID.TID 0000.0001)     NEIGHBOUR  2 = TILE   13 (n=  1) Comm = PUT (PROC=    1)
(PID.TID 0000.0001)     NEIGHBOUR  3 = TILE   16 (n=  4) Comm = PUT (PROC=    1)
(PID.TID 0000.0001)     NEIGHBOUR  4 = TILE   12 (n=  3) Comm = PUT (PROC=    1)
(PID.TID 0000.0001)  TILE:    16 , Nb of Neighbours =  4
(PID.TID 0000.0001)     NEIGHBOUR  1 = TILE   18 (n=  2) Comm = PUT (PROC=    1)
(PID.TID 0000.0001)     NEIGHBOUR  2 = TILE   14 (n=  1) Comm = PUT (PROC=    1)
(PID.TID 0000.0001)     NEIGHBOUR  3 = TILE   21 (n=  2) Comm = PUT (PROC=    1)
(PID.TID 0000.0001)     NEIGHBOUR  4 = TILE   15 (n=  3) Comm = PUT (PROC=    1)
(PID.TID 0000.0001)  TILE:    17 , Nb of Neighbours =  4
(PID.TID 0000.0001)     NEIGHBOUR  1 = TILE   19 (n=  2) Comm = PUT (PROC=    1)
(PID.TID 0000.0001)     NEIGHBOUR  2 = TILE   15 (n=  1) Comm = PUT (PROC=    1)
(PID.TID 0000.0001)     NEIGHBOUR  3 = TILE   18 (n=  4) Comm = PUT (PROC=    1)
(PID.TID 0000.0001)     NEIGHBOUR  4 = TILE   12 (n=  1) Comm = PUT (PROC=    1)
(PID.TID 0000.0001)  TILE:    18 , Nb of Neighbours =  4
(PID.TID 0000.0001)     NEIGHBOUR  1 = TILE   20 (n=  2) Comm = PUT (PROC=    1)
(PID.TID 0000.0001)     NEIGHBOUR  2 = TILE   16 (n=  1) Comm = PUT (PROC=    1)
(PID.TID 0000.0001)     NEIGHBOUR  3 = TILE   21 (n=  4) Comm = PUT (PROC=    1)
(PID.TID 0000.0001)     NEIGHBOUR  4 = TILE   17 (n=  3) Comm = PUT (PROC=    1)
(PID.TID 0000.0001)  TILE:    19 , Nb of Neighbours =  4
(PID.TID 0000.0001)     NEIGHBOUR  1 = TILE    3 (n=  4) Comm = PUT (PROC=    1)
(PID.TID 0000.0001)     NEIGHBOUR  2 = TILE   17 (n=  1) Comm = PUT (PROC=    1)
(PID.TID 0000.0001)     NEIGHBOUR  3 = TILE   20 (n=  4) Comm = PUT (PROC=    1)
(PID.TID 0000.0001)     NEIGHBOUR  4 = TILE   11 (n=  1) Comm = PUT (PROC=    1)
(PID.TID 0000.0001)  TILE:    20 , Nb of Neighbours =  4
(PID.TID 0000.0001)     NEIGHBOUR  1 = TILE    1 (n=  4) Comm = PUT (PROC=    1)
(PID.TID 0000.0001)     NEIGHBOUR  2 = TILE   18 (n=  1) Comm = PUT (PROC=    1)
(PID.TID 0000.0001)     NEIGHBOUR  3 = TILE   23 (n=  4) Comm = PUT (PROC=    1)
(PID.TID 0000.0001)     NEIGHBOUR  4 = TILE   19 (n=  3) Comm = PUT (PROC=    1)
(PID.TID 0000.0001)  TILE:    21 , Nb of Neighbours =  4
(PID.TID 0000.0001)     NEIGHBOUR  1 = TILE   23 (n=  2) Comm = PUT (PROC=    1)
(PID.TID 0000.0001)     NEIGHBOUR  2 = TILE   16 (n=  3) Comm = PUT (PROC=    1)
(PID.TID 0000.0001)     NEIGHBOUR  3 = TILE   22 (n=  4) Comm = PUT (PROC=    1)
(PID.TID 0000.0001)     NEIGHBOUR  4 = TILE   18 (n=  3) Comm = PUT (PROC=    1)
(PID.TID 0000.0001)  TILE:    22 , Nb of Neighbours =  4
(PID.TID 0000.0001)     NEIGHBOUR  1 = TILE   24 (n=  2) Comm = PUT (PROC=    1)
(PID.TID 0000.0001)     NEIGHBOUR  2 = TILE   14 (n=  3) Comm = PUT (PROC=    1)
(PID.TID 0000.0001)     NEIGHBOUR  3 = TILE    6 (n=  2) Comm = PUT (PROC=    1)
(PID.TID 0000.0001)     NEIGHBOUR  4 = TILE   21 (n=  3) Comm = PUT (PROC=    1)
(PID.TID 0000.0001)  TILE:    23 , Nb of Neighbours =  4
(PID.TID 0000.0001)     NEIGHBOUR  1 = TILE    1 (n=  2) Comm = PUT (PROC=    1)
(PID.TID 0000.0001)     NEIGHBOUR  2 = TILE   21 (n=  1) Comm = PUT (PROC=    1)
(PID.TID 0000.0001)     NEIGHBOUR  3 = TILE   24 (n=  4) Comm = PUT (PROC=    1)
(PID.TID 0000.0001)     NEIGHBOUR  4 = TILE   20 (n=  3) Comm = PUT (PROC=    1)
(PID.TID 0000.0001)  TILE:    24 , Nb of Neighbours =  4
(PID.TID 0000.0001)     NEIGHBOUR  1 = TILE    2 (n=  2) Comm = PUT (PROC=    1)
(PID.TID 0000.0001)     NEIGHBOUR  2 = TILE   22 (n=  1) Comm = PUT (PROC=    1)
(PID.TID 0000.0001)     NEIGHBOUR  3 = TILE    5 (n=  2) Comm = PUT (PROC=    1)
(PID.TID 0000.0001)     NEIGHBOUR  4 = TILE   23 (n=  3) Comm = PUT (PROC=    1)
(PID.TID 0000.0001) =====       setting W2 TOPOLOGY: Done
(PID.TID 0000.0001) 
(PID.TID 0000.0001)  INI_PARMS: opening model parameter file "data"
(PID.TID 0000.0001)  OPEN_COPY_DATA_FILE: opening file data
(PID.TID 0000.0001) // =======================================================
(PID.TID 0000.0001) // Parameter file "data"
(PID.TID 0000.0001) // =======================================================
(PID.TID 0000.0001) ># ====================
(PID.TID 0000.0001) ># | Model parameters |
(PID.TID 0000.0001) ># ====================
(PID.TID 0000.0001) >#
(PID.TID 0000.0001) ># Continuous equation parameters
(PID.TID 0000.0001) > &PARM01
(PID.TID 0000.0001) > tRef               = 3*23.,3*22.,21.,2*20.,19.,2*18.,17.,2*16.,15.,14.,13.,
(PID.TID 0000.0001) >                      12.,11.,2*9.,8.,7.,2*6.,2*5.,3*4.,3*3.,4*2.,12*1.,
(PID.TID 0000.0001) > sRef               = 50*34.5,
(PID.TID 0000.0001) > no_slip_sides  = .TRUE.,
(PID.TID 0000.0001) > no_slip_bottom = .TRUE.,
(PID.TID 0000.0001) >#
(PID.TID 0000.0001) > viscAr=1.E-3,
(PID.TID 0000.0001) >#
(PID.TID 0000.0001) > viscAh=1.E0,
(PID.TID 0000.0001) > viscAhGrid=2.E-2,
(PID.TID 0000.0001) ># viscAh=2.0e4,
(PID.TID 0000.0001) >#
(PID.TID 0000.0001) > diffKhT=1.E1,
(PID.TID 0000.0001) > diffKrT=1.E-5,
(PID.TID 0000.0001) > diffKhS=1.E1,
(PID.TID 0000.0001) > diffKrS=1.E-5,
(PID.TID 0000.0001) >#
(PID.TID 0000.0001) >### diffKrBL79surf=0.1E-4,
(PID.TID 0000.0001) >### diffKrBL79deep=1.0E-4,
(PID.TID 0000.0001) > bottomDragQuadratic = 0.001,
(PID.TID 0000.0001) >#when using ggl90
(PID.TID 0000.0001) > ivdc_kappa=10.,
(PID.TID 0000.0001) > implicitDiffusion=.TRUE.,
(PID.TID 0000.0001) > implicitViscosity=.TRUE.,
(PID.TID 0000.0001) > useRealFreshWaterFlux=.TRUE.,
(PID.TID 0000.0001) > balanceThetaClimRelax=.TRUE.,
(PID.TID 0000.0001) > balanceSaltClimRelax=.TRUE.,
(PID.TID 0000.0001) > balanceEmPmR=.TRUE.,
(PID.TID 0000.0001) > balanceQnet=.TRUE.,
(PID.TID 0000.0001) > allowFreezing=.FALSE.,
(PID.TID 0000.0001) >### hFacInf=0.2,
(PID.TID 0000.0001) >### hFacSup=2.0,
(PID.TID 0000.0001) > hFacMin=.2,
(PID.TID 0000.0001) > hFacMinDr=5.,
(PID.TID 0000.0001) > select_rStar=2,
(PID.TID 0000.0001) > nonlinFreeSurf=2,
(PID.TID 0000.0001) > gravity=9.81,
(PID.TID 0000.0001) > rhonil=1029.,
(PID.TID 0000.0001) > rhoConst=1029.,
(PID.TID 0000.0001) > rhoConstFresh=1000.,
(PID.TID 0000.0001) > convertFW2Salt=-1.,
(PID.TID 0000.0001) > eosType='JMD95Z',
(PID.TID 0000.0001) > implicitFreeSurface=.TRUE.,
(PID.TID 0000.0001) > exactConserv=.TRUE.,
(PID.TID 0000.0001) > useSingleCpuIO=.TRUE.,
(PID.TID 0000.0001) > tempAdvScheme=30,
(PID.TID 0000.0001) > saltAdvScheme=30,
(PID.TID 0000.0001) > tempVertAdvScheme=3,
(PID.TID 0000.0001) > saltVertAdvScheme=3,
(PID.TID 0000.0001) > tempImplVertAdv=.TRUE.,
(PID.TID 0000.0001) > saltImplVertAdv=.TRUE.,
(PID.TID 0000.0001) > staggerTimeStep=.TRUE.,
(PID.TID 0000.0001) > vectorInvariantMomentum=.TRUE.,
(PID.TID 0000.0001) >#when using the cd scheme:
(PID.TID 0000.0001) ># useCDscheme=.TRUE.,
(PID.TID 0000.0001) > useJamartWetPoints=.TRUE.,
(PID.TID 0000.0001) > readBinaryPrec=32,
(PID.TID 0000.0001) > writeBinaryPrec=32,
(PID.TID 0000.0001) > debugLevel=1,
(PID.TID 0000.0001) > /
(PID.TID 0000.0001) >
(PID.TID 0000.0001) ># Elliptic solver parameters
(PID.TID 0000.0001) > &PARM02
(PID.TID 0000.0001) > cg2dMaxIters=300,
(PID.TID 0000.0001) > cg2dTargetResWunit=1.E-12,
(PID.TID 0000.0001) > /
(PID.TID 0000.0001) >
(PID.TID 0000.0001) ># Time stepping parameters
(PID.TID 0000.0001) > &PARM03
(PID.TID 0000.0001) >#for spinup (see sss relax too)
(PID.TID 0000.0001) > nIter0=0,
(PID.TID 0000.0001) >#2 level 2s
(PID.TID 0000.0001) > nTimeSteps=8,
(PID.TID 0000.0001) >#1m:
(PID.TID 0000.0001) ># nTimeSteps=64,
(PID.TID 0000.0001) >#3y:
(PID.TID 0000.0001) ># nTimeSteps=2190,
(PID.TID 0000.0001) >#
(PID.TID 0000.0001) > forcing_In_AB=.FALSE.,
(PID.TID 0000.0001) > momDissip_In_AB=.FALSE.,
(PID.TID 0000.0001) >#when using the cd scheme:
(PID.TID 0000.0001) ># epsAB_CD = 0.25,
(PID.TID 0000.0001) ># tauCD=172800.0,
(PID.TID 0000.0001) > deltaTmom   =900.,
(PID.TID 0000.0001) > deltaTtracer=43200.,
(PID.TID 0000.0001) > deltaTfreesurf=43200.,
(PID.TID 0000.0001) > deltaTClock =43200.,
(PID.TID 0000.0001) >#when using ab2:
(PID.TID 0000.0001) ># abEps = 0.1,
(PID.TID 0000.0001) >#when using ab3:
(PID.TID 0000.0001) > doAB_onGtGs=.FALSE.,
(PID.TID 0000.0001) > alph_AB=0.5,
(PID.TID 0000.0001) > beta_AB=0.281105,
(PID.TID 0000.0001) >#
(PID.TID 0000.0001) > pChkptFreq  =31536000.0,
(PID.TID 0000.0001) > chkptFreq   =31536000.0,
(PID.TID 0000.0001) ># taveFreq    =31536000.0,
(PID.TID 0000.0001) ># dumpFreq    =31536000.0,
(PID.TID 0000.0001) > monitorFreq = 86400.0,
(PID.TID 0000.0001) > dumpInitAndLast = .TRUE.,
(PID.TID 0000.0001) > adjDumpFreq = 31536000.0,
(PID.TID 0000.0001) > adjMonitorFreq = 864000.0,
(PID.TID 0000.0001) > pickupStrictlyMatch=.FALSE.,
(PID.TID 0000.0001) > /
(PID.TID 0000.0001) >
(PID.TID 0000.0001) ># Gridding parameters
(PID.TID 0000.0001) > &PARM04
(PID.TID 0000.0001) > horizGridFile='grid_cs32',
(PID.TID 0000.0001) > usingCurvilinearGrid=.TRUE.,
(PID.TID 0000.0001) > delR =
(PID.TID 0000.0001) >     10.00, 10.00, 10.00, 10.00, 10.00, 10.00, 10.00, 10.01,
(PID.TID 0000.0001) >     10.03, 10.11, 10.32, 10.80, 11.76, 13.42, 16.04, 19.82, 24.85,
(PID.TID 0000.0001) >     31.10, 38.42, 46.50, 55.00, 63.50, 71.58, 78.90, 85.15, 90.18,
(PID.TID 0000.0001) >     93.96, 96.58, 98.25, 99.25,100.01,101.33,104.56,111.33,122.83,
(PID.TID 0000.0001) >     139.09,158.94,180.83,203.55,226.50,249.50,272.50,295.50,318.50,
(PID.TID 0000.0001) >     341.50,364.50,387.50,410.50,433.50,456.50,
(PID.TID 0000.0001) > /
(PID.TID 0000.0001) >
(PID.TID 0000.0001) ># Input datasets
(PID.TID 0000.0001) > &PARM05
(PID.TID 0000.0001) > adTapeDir='tapes',
(PID.TID 0000.0001) ># bathyFile      ='bathy_shallow.bin',
(PID.TID 0000.0001) > bathyFile      ='bathy_global.bin',
(PID.TID 0000.0001) ># bathyFile      ='bathy_north.bin',
(PID.TID 0000.0001) ># bathyFile      ='bathy_south.bin',
(PID.TID 0000.0001) > hydrogThetaFile='some_T_atlas.bin',
(PID.TID 0000.0001) > hydrogSaltFile ='some_S_atlas.bin',
(PID.TID 0000.0001) >#
(PID.TID 0000.0001) > /
(PID.TID 0000.0001) 
(PID.TID 0000.0001)  INI_PARMS ; starts to read PARM01
(PID.TID 0000.0001)  INI_PARMS ; read PARM01 : OK
(PID.TID 0000.0001)  INI_PARMS ; starts to read PARM02
(PID.TID 0000.0001)  INI_PARMS ; read PARM02 : OK
(PID.TID 0000.0001)  INI_PARMS ; starts to read PARM03
(PID.TID 0000.0001)  INI_PARMS ; read PARM03 : OK
(PID.TID 0000.0001)  INI_PARMS ; starts to read PARM04
(PID.TID 0000.0001)  INI_PARMS ; read PARM04 : OK
(PID.TID 0000.0001)  INI_PARMS ; starts to read PARM05
(PID.TID 0000.0001)  INI_PARMS ; read PARM05 : OK
(PID.TID 0000.0001)  INI_PARMS: finished reading file "data"
(PID.TID 0000.0001)  PACKAGES_BOOT: opening data.pkg
(PID.TID 0000.0001)  OPEN_COPY_DATA_FILE: opening file data.pkg
(PID.TID 0000.0001) // =======================================================
(PID.TID 0000.0001) // Parameter file "data.pkg"
(PID.TID 0000.0001) // =======================================================
(PID.TID 0000.0001) ># Packages
(PID.TID 0000.0001) > &PACKAGES
(PID.TID 0000.0001) > useEXF   = .TRUE.,
(PID.TID 0000.0001) >#useRBCS  = .TRUE.,
(PID.TID 0000.0001) > useGMRedi= .TRUE.,
(PID.TID 0000.0001) ># useKPP   = .TRUE.,
(PID.TID 0000.0001) > useSBO   = .FALSE.,
(PID.TID 0000.0001) >#useMNC   = .TRUE.,
(PID.TID 0000.0001) > useSeaice= .TRUE.,
(PID.TID 0000.0001) > useGGL90=.TRUE.,
(PID.TID 0000.0001) > useSALT_PlUME=.TRUE.,
(PID.TID 0000.0001) ># useDOWN_SLOPE=.TRUE.,
(PID.TID 0000.0001) > useDiagnostics=.TRUE.,
(PID.TID 0000.0001) > useProfiles=.TRUE.,
(PID.TID 0000.0001) > useSMOOTH=.TRUE.,
(PID.TID 0000.0001) > useGrdchk=.TRUE.,
(PID.TID 0000.0001) >#useLayers=.TRUE.,
(PID.TID 0000.0001) >#
(PID.TID 0000.0001) >#usePtracers=.TRUE.,
(PID.TID 0000.0001) >#useBBL=.TRUE.,
(PID.TID 0000.0001) > /
(PID.TID 0000.0001) 
(PID.TID 0000.0001)  PACKAGES_BOOT: finished reading data.pkg
(PID.TID 0000.0001) CAL_READPARMS: opening data.cal
(PID.TID 0000.0001)  OPEN_COPY_DATA_FILE: opening file data.cal
(PID.TID 0000.0001) // =======================================================
(PID.TID 0000.0001) // Parameter file "data.cal"
(PID.TID 0000.0001) // =======================================================
(PID.TID 0000.0001) >#
(PID.TID 0000.0001) ># *******************
(PID.TID 0000.0001) ># Calendar Parameters
(PID.TID 0000.0001) ># *******************
(PID.TID 0000.0001) > &CAL_NML
(PID.TID 0000.0001) > TheCalendar='gregorian',
(PID.TID 0000.0001) > calendarDumps=.TRUE.,
(PID.TID 0000.0001) ># TheCalendar='model',
(PID.TID 0000.0001) > startDate_1=19920101,
(PID.TID 0000.0001) > startDate_2=120000,
(PID.TID 0000.0001) > /
(PID.TID 0000.0001) 
(PID.TID 0000.0001) CAL_READPARMS: finished reading data.cal
(PID.TID 0000.0001) EXF_READPARMS: opening data.exf
(PID.TID 0000.0001)  OPEN_COPY_DATA_FILE: opening file data.exf
(PID.TID 0000.0001) // =======================================================
(PID.TID 0000.0001) // Parameter file "data.exf"
(PID.TID 0000.0001) // =======================================================
(PID.TID 0000.0001) ># *********************
(PID.TID 0000.0001) ># External Forcing Data
(PID.TID 0000.0001) ># *********************
(PID.TID 0000.0001) >#
(PID.TID 0000.0001) > &EXF_NML_01
(PID.TID 0000.0001) >#see MITgcm/verification/global_ocean.cs32x15/input.icedyn/data.exf
(PID.TID 0000.0001) > exf_albedo        = 0.066,
(PID.TID 0000.0001) > ht                = 10.,
(PID.TID 0000.0001) > ocean_emissivity  = 1.,
(PID.TID 0000.0001) > atmrho            = 1.22,
(PID.TID 0000.0001) > humid_fac         = .608,
(PID.TID 0000.0001) >#
(PID.TID 0000.0001) > exf_iprec         = 32,
(PID.TID 0000.0001) > exf_yftype        = 'RL',
(PID.TID 0000.0001) > useExfCheckRange  = .FALSE.,
(PID.TID 0000.0001) > repeatPeriod      = 31536000.,
(PID.TID 0000.0001) > /
(PID.TID 0000.0001) >#
(PID.TID 0000.0001) > &EXF_NML_02
(PID.TID 0000.0001) > uwindfile         = 'CORE2_u10m_6hrly_r2_1992',
(PID.TID 0000.0001) > vwindfile         = 'CORE2_v10m_6hrly_r2_1992',
(PID.TID 0000.0001) > atempfile         = 'CORE2_tmp10m_6hrly_r2_1992',
(PID.TID 0000.0001) > aqhfile           = 'CORE2_spfh10m_6hrly_r2_1992',
(PID.TID 0000.0001) > precipfile        = 'CORE2_rain_monthly_r2_1992',
(PID.TID 0000.0001) > swdownfile        = 'CORE2_dsw_daily_r2_1992',
(PID.TID 0000.0001) > lwdownfile        = 'CORE2_dlw_daily_r2_1992',
(PID.TID 0000.0001) >#
(PID.TID 0000.0001) > ustressstartdate1   = 19470101,
(PID.TID 0000.0001) > ustressstartdate2   = 030000,
(PID.TID 0000.0001) > ustressperiod       = 21600.0,
(PID.TID 0000.0001) >#
(PID.TID 0000.0001) > vstressstartdate1   = 19470101,
(PID.TID 0000.0001) > vstressstartdate2   = 030000,
(PID.TID 0000.0001) > vstressperiod       = 21600.0,
(PID.TID 0000.0001) >#
(PID.TID 0000.0001) > atempstartdate1   = 19470101,
(PID.TID 0000.0001) > atempstartdate2   = 030000,
(PID.TID 0000.0001) > atempperiod       = 21600.0,
(PID.TID 0000.0001) >#
(PID.TID 0000.0001) > aqhstartdate1     = 19470101,
(PID.TID 0000.0001) > aqhstartdate2     = 030000,
(PID.TID 0000.0001) > aqhperiod         = 21600.0,
(PID.TID 0000.0001) >#
(PID.TID 0000.0001) > precipstartdate1  = 19470115,
(PID.TID 0000.0001) > precipstartdate2  = 120000,
(PID.TID 0000.0001) > precipperiod      = 2628000.0,
(PID.TID 0000.0001) >#or precipperiod = -12.,
(PID.TID 0000.0001) >#
(PID.TID 0000.0001) > runoffstartdate1  = 19470115,
(PID.TID 0000.0001) > runoffstartdate2  = 120000,
(PID.TID 0000.0001) > runoffperiod      = 2628000.0,
(PID.TID 0000.0001) >#
(PID.TID 0000.0001) > uwindstartdate1   = 19470101,
(PID.TID 0000.0001) > uwindstartdate2   = 030000,
(PID.TID 0000.0001) > uwindperiod       = 21600.0,
(PID.TID 0000.0001) >#
(PID.TID 0000.0001) > vwindstartdate1   = 19470101,
(PID.TID 0000.0001) > vwindstartdate2   = 030000,
(PID.TID 0000.0001) > vwindperiod       = 21600.0,
(PID.TID 0000.0001) >#
(PID.TID 0000.0001) > wspeedstartdate1   = 19470101,
(PID.TID 0000.0001) > wspeedstartdate2   = 120000,
(PID.TID 0000.0001) > wspeedperiod       = 21600.0,
(PID.TID 0000.0001) >#
(PID.TID 0000.0001) > swdownstartdate1  = 19470101,
(PID.TID 0000.0001) > swdownstartdate2  = 120000,
(PID.TID 0000.0001) > swdownperiod      = 86400.0,
(PID.TID 0000.0001) >#
(PID.TID 0000.0001) > lwdownstartdate1  = 19470101,
(PID.TID 0000.0001) > lwdownstartdate2  = 120000,
(PID.TID 0000.0001) > lwdownperiod      = 86400.0,
(PID.TID 0000.0001) >#
(PID.TID 0000.0001) > apressurestartdate1   = 19470101,
(PID.TID 0000.0001) > apressurestartdate2   = 120000,
(PID.TID 0000.0001) > apressureperiod       = 21600.0,
(PID.TID 0000.0001) >#
(PID.TID 0000.0001) > /
(PID.TID 0000.0001) >#
(PID.TID 0000.0001) > &EXF_NML_03
(PID.TID 0000.0001) >#NOT FOR EIG exf_offset_atemp  = 273.3971,
(PID.TID 0000.0001) > exf_offset_atemp  = 273.15,
(PID.TID 0000.0001) > exf_inscal_runoff = 1.e-06,
(PID.TID 0000.0001) ># to compensate for sea level rise for nlfs/realFWF
(PID.TID 0000.0001) ># precip_exfremo_intercept = 1.073E-9,
(PID.TID 0000.0001) ># precip_exfremo_slope = -3.340E-18,
(PID.TID 0000.0001) > /
(PID.TID 0000.0001) >#
(PID.TID 0000.0001) > &EXF_NML_04
(PID.TID 0000.0001) > runoff_interpMethod = 0,
(PID.TID 0000.0001) > climsss_interpMethod = 0,
(PID.TID 0000.0001) >#
(PID.TID 0000.0001) > atemp_lon0        = 0.00D0,
(PID.TID 0000.0001) > atemp_lon_inc     = 1.875D0,
(PID.TID 0000.0001) > atemp_lat0        = -88.5420D0,
(PID.TID 0000.0001) > atemp_lat_inc     = 1.8888, 1.9000, 1.9024, 1.9034, 1.9039, 1.9042,
(PID.TID 0000.0001) >     1.9042, 1.9044, 1.9045, 1.9045, 1.9046, 1.9046, 1.9046, 1.9046,
(PID.TID 0000.0001) >     1.9047, 1.9046, 1.9047, 1.9047, 1.9047, 1.9047, 1.9047, 1.9047,
(PID.TID 0000.0001) >     1.9047, 1.9047, 1.9047, 1.9047, 1.9048, 1.9047, 1.9047, 1.9047,
(PID.TID 0000.0001) >     1.9047, 1.9048, 1.9047, 1.9047, 1.9048, 1.9047, 1.9047, 1.9048,
(PID.TID 0000.0001) >     1.9047, 1.9047, 1.9048, 1.9047, 1.9047, 1.9048, 1.9047, 1.9047,
(PID.TID 0000.0001) >     1.9048, 1.9047, 1.9047, 1.9048, 1.9047, 1.9047, 1.9048, 1.9047,
(PID.TID 0000.0001) >     1.9047, 1.9048, 1.9047, 1.9047, 1.9048, 1.9047, 1.9047, 1.9048,
(PID.TID 0000.0001) >     1.9047, 1.9047, 1.9047, 1.9047, 1.9048, 1.9047, 1.9047, 1.9047,
(PID.TID 0000.0001) >     1.9047, 1.9047, 1.9047, 1.9047, 1.9047, 1.9047, 1.9047, 1.9046,
(PID.TID 0000.0001) >     1.9047, 1.9046, 1.9046, 1.9046, 1.9046, 1.9045, 1.9045, 1.9044,
(PID.TID 0000.0001) >     1.9042, 1.9042, 1.9039, 1.9034, 1.9024, 1.9000, 1.8888, 1.8888,
(PID.TID 0000.0001) > atemp_nlon        = 192,
(PID.TID 0000.0001) > atemp_nlat        = 94,
(PID.TID 0000.0001) >#
(PID.TID 0000.0001) > aqh_lon0          = 0.00D0,
(PID.TID 0000.0001) > aqh_lon_inc       = 1.875D0,
(PID.TID 0000.0001) > aqh_lat0          = -88.5420D0,
(PID.TID 0000.0001) > aqh_lat_inc       = 1.8888, 1.9000, 1.9024, 1.9034, 1.9039, 1.9042,
(PID.TID 0000.0001) >     1.9042, 1.9044, 1.9045, 1.9045, 1.9046, 1.9046, 1.9046, 1.9046,
(PID.TID 0000.0001) >     1.9047, 1.9046, 1.9047, 1.9047, 1.9047, 1.9047, 1.9047, 1.9047,
(PID.TID 0000.0001) >     1.9047, 1.9047, 1.9047, 1.9047, 1.9048, 1.9047, 1.9047, 1.9047,
(PID.TID 0000.0001) >     1.9047, 1.9048, 1.9047, 1.9047, 1.9048, 1.9047, 1.9047, 1.9048,
(PID.TID 0000.0001) >     1.9047, 1.9047, 1.9048, 1.9047, 1.9047, 1.9048, 1.9047, 1.9047,
(PID.TID 0000.0001) >     1.9048, 1.9047, 1.9047, 1.9048, 1.9047, 1.9047, 1.9048, 1.9047,
(PID.TID 0000.0001) >     1.9047, 1.9048, 1.9047, 1.9047, 1.9048, 1.9047, 1.9047, 1.9048,
(PID.TID 0000.0001) >     1.9047, 1.9047, 1.9047, 1.9047, 1.9048, 1.9047, 1.9047, 1.9047,
(PID.TID 0000.0001) >     1.9047, 1.9047, 1.9047, 1.9047, 1.9047, 1.9047, 1.9047, 1.9046,
(PID.TID 0000.0001) >     1.9047, 1.9046, 1.9046, 1.9046, 1.9046, 1.9045, 1.9045, 1.9044,
(PID.TID 0000.0001) >     1.9042, 1.9042, 1.9039, 1.9034, 1.9024, 1.9000, 1.8888, 1.8888,
(PID.TID 0000.0001) > aqh_nlon          = 192,
(PID.TID 0000.0001) > aqh_nlat          = 94,
(PID.TID 0000.0001) >#
(PID.TID 0000.0001) > precip_lon0       = 0.00D0,
(PID.TID 0000.0001) > precip_lon_inc    = 1.875D0,
(PID.TID 0000.0001) > precip_lat0       = -88.5420D0,
(PID.TID 0000.0001) > precip_lat_inc    = 1.8888, 1.9000, 1.9024, 1.9034, 1.9039, 1.9042,
(PID.TID 0000.0001) >     1.9042, 1.9044, 1.9045, 1.9045, 1.9046, 1.9046, 1.9046, 1.9046,
(PID.TID 0000.0001) >     1.9047, 1.9046, 1.9047, 1.9047, 1.9047, 1.9047, 1.9047, 1.9047,
(PID.TID 0000.0001) >     1.9047, 1.9047, 1.9047, 1.9047, 1.9048, 1.9047, 1.9047, 1.9047,
(PID.TID 0000.0001) >     1.9047, 1.9048, 1.9047, 1.9047, 1.9048, 1.9047, 1.9047, 1.9048,
(PID.TID 0000.0001) >     1.9047, 1.9047, 1.9048, 1.9047, 1.9047, 1.9048, 1.9047, 1.9047,
(PID.TID 0000.0001) >     1.9048, 1.9047, 1.9047, 1.9048, 1.9047, 1.9047, 1.9048, 1.9047,
(PID.TID 0000.0001) >     1.9047, 1.9048, 1.9047, 1.9047, 1.9048, 1.9047, 1.9047, 1.9048,
(PID.TID 0000.0001) >     1.9047, 1.9047, 1.9047, 1.9047, 1.9048, 1.9047, 1.9047, 1.9047,
(PID.TID 0000.0001) >     1.9047, 1.9047, 1.9047, 1.9047, 1.9047, 1.9047, 1.9047, 1.9046,
(PID.TID 0000.0001) >     1.9047, 1.9046, 1.9046, 1.9046, 1.9046, 1.9045, 1.9045, 1.9044,
(PID.TID 0000.0001) >     1.9042, 1.9042, 1.9039, 1.9034, 1.9024, 1.9000, 1.8888, 1.8888,
(PID.TID 0000.0001) > precip_nlon       = 192,
(PID.TID 0000.0001) > precip_nlat       = 94,
(PID.TID 0000.0001) >#
(PID.TID 0000.0001) > uwind_lon0        = 0.00D0,
(PID.TID 0000.0001) > uwind_lon_inc     = 1.875D0,
(PID.TID 0000.0001) > uwind_lat0        = -88.5420D0,
(PID.TID 0000.0001) > uwind_lat_inc     = 1.8888, 1.9000, 1.9024, 1.9034, 1.9039, 1.9042,
(PID.TID 0000.0001) >     1.9042, 1.9044, 1.9045, 1.9045, 1.9046, 1.9046, 1.9046, 1.9046,
(PID.TID 0000.0001) >     1.9047, 1.9046, 1.9047, 1.9047, 1.9047, 1.9047, 1.9047, 1.9047,
(PID.TID 0000.0001) >     1.9047, 1.9047, 1.9047, 1.9047, 1.9048, 1.9047, 1.9047, 1.9047,
(PID.TID 0000.0001) >     1.9047, 1.9048, 1.9047, 1.9047, 1.9048, 1.9047, 1.9047, 1.9048,
(PID.TID 0000.0001) >     1.9047, 1.9047, 1.9048, 1.9047, 1.9047, 1.9048, 1.9047, 1.9047,
(PID.TID 0000.0001) >     1.9048, 1.9047, 1.9047, 1.9048, 1.9047, 1.9047, 1.9048, 1.9047,
(PID.TID 0000.0001) >     1.9047, 1.9048, 1.9047, 1.9047, 1.9048, 1.9047, 1.9047, 1.9048,
(PID.TID 0000.0001) >     1.9047, 1.9047, 1.9047, 1.9047, 1.9048, 1.9047, 1.9047, 1.9047,
(PID.TID 0000.0001) >     1.9047, 1.9047, 1.9047, 1.9047, 1.9047, 1.9047, 1.9047, 1.9046,
(PID.TID 0000.0001) >     1.9047, 1.9046, 1.9046, 1.9046, 1.9046, 1.9045, 1.9045, 1.9044,
(PID.TID 0000.0001) >     1.9042, 1.9042, 1.9039, 1.9034, 1.9024, 1.9000, 1.8888, 1.8888,
(PID.TID 0000.0001) > uwind_nlon        = 192,
(PID.TID 0000.0001) > uwind_nlat        = 94,
(PID.TID 0000.0001) >#
(PID.TID 0000.0001) > vwind_lon0        = 0.00D0,
(PID.TID 0000.0001) > vwind_lon_inc     = 1.875D0,
(PID.TID 0000.0001) > vwind_lat0        = -88.5420D0,
(PID.TID 0000.0001) > vwind_lat_inc     = 1.8888, 1.9000, 1.9024, 1.9034, 1.9039, 1.9042,
(PID.TID 0000.0001) >     1.9042, 1.9044, 1.9045, 1.9045, 1.9046, 1.9046, 1.9046, 1.9046,
(PID.TID 0000.0001) >     1.9047, 1.9046, 1.9047, 1.9047, 1.9047, 1.9047, 1.9047, 1.9047,
(PID.TID 0000.0001) >     1.9047, 1.9047, 1.9047, 1.9047, 1.9048, 1.9047, 1.9047, 1.9047,
(PID.TID 0000.0001) >     1.9047, 1.9048, 1.9047, 1.9047, 1.9048, 1.9047, 1.9047, 1.9048,
(PID.TID 0000.0001) >     1.9047, 1.9047, 1.9048, 1.9047, 1.9047, 1.9048, 1.9047, 1.9047,
(PID.TID 0000.0001) >     1.9048, 1.9047, 1.9047, 1.9048, 1.9047, 1.9047, 1.9048, 1.9047,
(PID.TID 0000.0001) >     1.9047, 1.9048, 1.9047, 1.9047, 1.9048, 1.9047, 1.9047, 1.9048,
(PID.TID 0000.0001) >     1.9047, 1.9047, 1.9047, 1.9047, 1.9048, 1.9047, 1.9047, 1.9047,
(PID.TID 0000.0001) >     1.9047, 1.9047, 1.9047, 1.9047, 1.9047, 1.9047, 1.9047, 1.9046,
(PID.TID 0000.0001) >     1.9047, 1.9046, 1.9046, 1.9046, 1.9046, 1.9045, 1.9045, 1.9044,
(PID.TID 0000.0001) >     1.9042, 1.9042, 1.9039, 1.9034, 1.9024, 1.9000, 1.8888, 1.8888,
(PID.TID 0000.0001) > vwind_nlon        = 192,
(PID.TID 0000.0001) > vwind_nlat        = 94,
(PID.TID 0000.0001) >#
(PID.TID 0000.0001) > swdown_lon0       = 0.00D0,
(PID.TID 0000.0001) > swdown_lon_inc    = 1.875D0,
(PID.TID 0000.0001) > swdown_lat0       = -88.5420D0,
(PID.TID 0000.0001) > swdown_lat_inc    = 1.8888, 1.9000, 1.9024, 1.9034, 1.9039, 1.9042,
(PID.TID 0000.0001) >     1.9042, 1.9044, 1.9045, 1.9045, 1.9046, 1.9046, 1.9046, 1.9046,
(PID.TID 0000.0001) >     1.9047, 1.9046, 1.9047, 1.9047, 1.9047, 1.9047, 1.9047, 1.9047,
(PID.TID 0000.0001) >     1.9047, 1.9047, 1.9047, 1.9047, 1.9048, 1.9047, 1.9047, 1.9047,
(PID.TID 0000.0001) >     1.9047, 1.9048, 1.9047, 1.9047, 1.9048, 1.9047, 1.9047, 1.9048,
(PID.TID 0000.0001) >     1.9047, 1.9047, 1.9048, 1.9047, 1.9047, 1.9048, 1.9047, 1.9047,
(PID.TID 0000.0001) >     1.9048, 1.9047, 1.9047, 1.9048, 1.9047, 1.9047, 1.9048, 1.9047,
(PID.TID 0000.0001) >     1.9047, 1.9048, 1.9047, 1.9047, 1.9048, 1.9047, 1.9047, 1.9048,
(PID.TID 0000.0001) >     1.9047, 1.9047, 1.9047, 1.9047, 1.9048, 1.9047, 1.9047, 1.9047,
(PID.TID 0000.0001) >     1.9047, 1.9047, 1.9047, 1.9047, 1.9047, 1.9047, 1.9047, 1.9046,
(PID.TID 0000.0001) >     1.9047, 1.9046, 1.9046, 1.9046, 1.9046, 1.9045, 1.9045, 1.9044,
(PID.TID 0000.0001) >     1.9042, 1.9042, 1.9039, 1.9034, 1.9024, 1.9000, 1.8888, 1.8888,
(PID.TID 0000.0001) > swdown_nlon       = 192,
(PID.TID 0000.0001) > swdown_nlat       = 94,
(PID.TID 0000.0001) >#
(PID.TID 0000.0001) > lwdown_lon0       = 0.00D0,
(PID.TID 0000.0001) > lwdown_lon_inc    = 1.875D0,
(PID.TID 0000.0001) > lwdown_lat0       = -88.5420D0,
(PID.TID 0000.0001) > lwdown_lat_inc    = 1.8888, 1.9000, 1.9024, 1.9034, 1.9039, 1.9042,
(PID.TID 0000.0001) >     1.9042, 1.9044, 1.9045, 1.9045, 1.9046, 1.9046, 1.9046, 1.9046,
(PID.TID 0000.0001) >     1.9047, 1.9046, 1.9047, 1.9047, 1.9047, 1.9047, 1.9047, 1.9047,
(PID.TID 0000.0001) >     1.9047, 1.9047, 1.9047, 1.9047, 1.9048, 1.9047, 1.9047, 1.9047,
(PID.TID 0000.0001) >     1.9047, 1.9048, 1.9047, 1.9047, 1.9048, 1.9047, 1.9047, 1.9048,
(PID.TID 0000.0001) >     1.9047, 1.9047, 1.9048, 1.9047, 1.9047, 1.9048, 1.9047, 1.9047,
(PID.TID 0000.0001) >     1.9048, 1.9047, 1.9047, 1.9048, 1.9047, 1.9047, 1.9048, 1.9047,
(PID.TID 0000.0001) >     1.9047, 1.9048, 1.9047, 1.9047, 1.9048, 1.9047, 1.9047, 1.9048,
(PID.TID 0000.0001) >     1.9047, 1.9047, 1.9047, 1.9047, 1.9048, 1.9047, 1.9047, 1.9047,
(PID.TID 0000.0001) >     1.9047, 1.9047, 1.9047, 1.9047, 1.9047, 1.9047, 1.9047, 1.9046,
(PID.TID 0000.0001) >     1.9047, 1.9046, 1.9046, 1.9046, 1.9046, 1.9045, 1.9045, 1.9044,
(PID.TID 0000.0001) >     1.9042, 1.9042, 1.9039, 1.9034, 1.9024, 1.9000, 1.8888, 1.8888,
(PID.TID 0000.0001) > lwdown_nlon       = 192,
(PID.TID 0000.0001) > lwdown_nlat       = 94,
(PID.TID 0000.0001) >#
(PID.TID 0000.0001) > apressure_lon0       = 0.00D0,
(PID.TID 0000.0001) > apressure_lon_inc    = 1.875D0,
(PID.TID 0000.0001) > apressure_lat0       = -88.5420D0,
(PID.TID 0000.0001) > apressure_lat_inc    = 1.8888, 1.9000, 1.9024, 1.9034, 1.9039, 1.9042,
(PID.TID 0000.0001) >     1.9042, 1.9044, 1.9045, 1.9045, 1.9046, 1.9046, 1.9046, 1.9046,
(PID.TID 0000.0001) >     1.9047, 1.9046, 1.9047, 1.9047, 1.9047, 1.9047, 1.9047, 1.9047,
(PID.TID 0000.0001) >     1.9047, 1.9047, 1.9047, 1.9047, 1.9048, 1.9047, 1.9047, 1.9047,
(PID.TID 0000.0001) >     1.9047, 1.9048, 1.9047, 1.9047, 1.9048, 1.9047, 1.9047, 1.9048,
(PID.TID 0000.0001) >     1.9047, 1.9047, 1.9048, 1.9047, 1.9047, 1.9048, 1.9047, 1.9047,
(PID.TID 0000.0001) >     1.9048, 1.9047, 1.9047, 1.9048, 1.9047, 1.9047, 1.9048, 1.9047,
(PID.TID 0000.0001) >     1.9047, 1.9048, 1.9047, 1.9047, 1.9048, 1.9047, 1.9047, 1.9048,
(PID.TID 0000.0001) >     1.9047, 1.9047, 1.9047, 1.9047, 1.9048, 1.9047, 1.9047, 1.9047,
(PID.TID 0000.0001) >     1.9047, 1.9047, 1.9047, 1.9047, 1.9047, 1.9047, 1.9047, 1.9046,
(PID.TID 0000.0001) >     1.9047, 1.9046, 1.9046, 1.9046, 1.9046, 1.9045, 1.9045, 1.9044,
(PID.TID 0000.0001) >     1.9042, 1.9042, 1.9039, 1.9034, 1.9024, 1.9000, 1.8888, 1.8888,
(PID.TID 0000.0001) > apressure_nlon       = 192,
(PID.TID 0000.0001) > apressure_nlat       = 94,
(PID.TID 0000.0001) > /
(PID.TID 0000.0001) 
(PID.TID 0000.0001) EXF_READPARMS: reading EXF_NML_01
(PID.TID 0000.0001) EXF_READPARMS: reading EXF_NML_02
(PID.TID 0000.0001) EXF_READPARMS: reading EXF_NML_03
(PID.TID 0000.0001) EXF_READPARMS: reading EXF_NML_04
(PID.TID 0000.0001) EXF_READPARMS: finished reading data.exf
(PID.TID 0000.0001)  GM_READPARMS: opening data.gmredi
(PID.TID 0000.0001)  OPEN_COPY_DATA_FILE: opening file data.gmredi
(PID.TID 0000.0001) // =======================================================
(PID.TID 0000.0001) // Parameter file "data.gmredi"
(PID.TID 0000.0001) // =======================================================
(PID.TID 0000.0001) ># GM+Redi package parameters:
(PID.TID 0000.0001) >#     GM_Small_Number  :: epsilon used in computing the slope
(PID.TID 0000.0001) >#     GM_slopeSqCutoff :: slope^2 cut-off value
(PID.TID 0000.0001) >
(PID.TID 0000.0001) >#-from MOM :
(PID.TID 0000.0001) ># GM_background_K: 	G & Mc.W  diffusion coefficient
(PID.TID 0000.0001) ># GM_maxSlope    :	max slope of isopycnals
(PID.TID 0000.0001) ># GM_Scrit       :	transition for scaling diffusion coefficient
(PID.TID 0000.0001) ># GM_Sd          :	half width scaling for diffusion coefficient
(PID.TID 0000.0001) ># GM_taper_scheme:	slope clipping or one of the tapering schemes
(PID.TID 0000.0001) ># GM_Kmin_horiz  :	horizontal diffusion minimum value
(PID.TID 0000.0001) >
(PID.TID 0000.0001) >#-Option parameters (needs to "define" options in GMREDI_OPTIONS.h")
(PID.TID 0000.0001) ># GM_isopycK     :	isopycnal diffusion coefficient (default=GM_background_K)
(PID.TID 0000.0001) ># GM_AdvForm     :	turn on GM Advective form       (default=Skew flux form)
(PID.TID 0000.0001) >
(PID.TID 0000.0001) > &GM_PARM01
(PID.TID 0000.0001) >  GM_Small_Number  = 1.D-20,
(PID.TID 0000.0001) >  GM_slopeSqCutoff = 1.D+08,
(PID.TID 0000.0001) >  GM_AdvForm         = .TRUE.,
(PID.TID 0000.0001) >  GM_isopycK         = 1.D+3,
(PID.TID 0000.0001) >  GM_background_K    = 1.D+3,
(PID.TID 0000.0001) >  GM_maxSlope        = 4.D-3,
(PID.TID 0000.0001) >  GM_taper_scheme    = 'gkw91',
(PID.TID 0000.0001) >  GM_Kmin_horiz      = 100.,
(PID.TID 0000.0001) >  GM_Scrit           = 4.D-3,
(PID.TID 0000.0001) >  GM_Sd              = 1.D-3,
(PID.TID 0000.0001) >#
(PID.TID 0000.0001) >###  GM_Visbeck_alpha   = 1.5D-2,
(PID.TID 0000.0001) >###  GM_Visbeck_alpha   = 0.D0,
(PID.TID 0000.0001) >###  GM_Visbeck_length  = 2.D+5,
(PID.TID 0000.0001) >###  GM_Visbeck_depth   = 1.D+3,
(PID.TID 0000.0001) >###  GM_Visbeck_maxval_K= 2.5D+3,
(PID.TID 0000.0001) > /
(PID.TID 0000.0001) >
(PID.TID 0000.0001) >
(PID.TID 0000.0001) 
(PID.TID 0000.0001)  GM_READPARMS: finished reading data.gmredi
(PID.TID 0000.0001)  GGL90_READPARMS: opening data.ggl90
(PID.TID 0000.0001)  OPEN_COPY_DATA_FILE: opening file data.ggl90
(PID.TID 0000.0001) // =======================================================
(PID.TID 0000.0001) // Parameter file "data.ggl90"
(PID.TID 0000.0001) // =======================================================
(PID.TID 0000.0001) ># =====================================================================
(PID.TID 0000.0001) ># | Parameters for Gaspar et al. (1990)'s TKE vertical mixing scheme  |
(PID.TID 0000.0001) ># =====================================================================
(PID.TID 0000.0001) > &GGL90_PARM01
(PID.TID 0000.0001) ># GGL90taveFreq = 345600000.,
(PID.TID 0000.0001) ># GGL90dumpFreq = 86400.,
(PID.TID 0000.0001) ># GGL90writeState=.FALSE.,
(PID.TID 0000.0001) ># GGL90diffTKEh=3.e3,
(PID.TID 0000.0001) > GGL90alpha=30.,
(PID.TID 0000.0001) ># GGL90TKEFile = 'TKE_init.bin',
(PID.TID 0000.0001) > GGL90TKEmin  = 1.e-7,
(PID.TID 0000.0001) > GGL90TKEbottom = 1.e-6,
(PID.TID 0000.0001) > mxlMaxFlag =2,
(PID.TID 0000.0001) > mxlSurfFlag=.TRUE.,
(PID.TID 0000.0001) > /
(PID.TID 0000.0001) 
(PID.TID 0000.0001)  GGL90_READPARMS: finished reading data.ggl90
(PID.TID 0000.0001) // =======================================================
(PID.TID 0000.0001) // GGL90 configuration
(PID.TID 0000.0001) // =======================================================
(PID.TID 0000.0001) GGL90dumpFreq =   /* GGL90 state write out interval ( s ). */
(PID.TID 0000.0001)                 0.000000000000000E+00
(PID.TID 0000.0001)     ;
(PID.TID 0000.0001) GGL90taveFreq =   /* GGL90 averaging interval ( s ). */
(PID.TID 0000.0001)                 0.000000000000000E+00
(PID.TID 0000.0001)     ;
(PID.TID 0000.0001) GGL90mixingMAPS =   /* GGL90 IO flag. */
(PID.TID 0000.0001)                   F
(PID.TID 0000.0001)     ;
(PID.TID 0000.0001) GGL90writeState =   /* GGL90 IO flag. */
(PID.TID 0000.0001)                   F
(PID.TID 0000.0001)     ;
(PID.TID 0000.0001) GGL90ck =   /* GGL90 viscosity parameter. */
(PID.TID 0000.0001)                 1.000000000000000E-01
(PID.TID 0000.0001)     ;
(PID.TID 0000.0001) GGL90ceps =   /* GGL90 dissipation parameter. */
(PID.TID 0000.0001)                 7.000000000000000E-01
(PID.TID 0000.0001)     ;
(PID.TID 0000.0001) GGL90alpha =   /* GGL90 TKE diffusivity parameter. */
(PID.TID 0000.0001)                 3.000000000000000E+01
(PID.TID 0000.0001)     ;
(PID.TID 0000.0001) GGL90m2 =   /* GGL90 wind stress to vertical stress ratio. */
(PID.TID 0000.0001)                 3.750000000000000E+00
(PID.TID 0000.0001)     ;
(PID.TID 0000.0001) GGL90TKEmin =   /* GGL90 minimum kinetic energy ( m^2/s^2 ). */
(PID.TID 0000.0001)                 1.000000000000000E-07
(PID.TID 0000.0001)     ;
(PID.TID 0000.0001) GGL90TKEsurfMin =   /* GGL90 minimum surface kinetic energy ( m^2/s^2 ). */
(PID.TID 0000.0001)                 1.000000000000000E-04
(PID.TID 0000.0001)     ;
(PID.TID 0000.0001) GGL90TKEbottom =   /* GGL90 bottom kinetic energy ( m^2/s^2 ). */
(PID.TID 0000.0001)                 1.000000000000000E-06
(PID.TID 0000.0001)     ;
(PID.TID 0000.0001) GGL90viscMax =   /* GGL90 upper limit for viscosity ( m^2/s ). */
(PID.TID 0000.0001)                 1.000000000000000E+02
(PID.TID 0000.0001)     ;
(PID.TID 0000.0001) GGL90diffMax =   /* GGL90 upper limit for diffusivity ( m^2/s ). */
(PID.TID 0000.0001)                 1.000000000000000E+02
(PID.TID 0000.0001)     ;
(PID.TID 0000.0001) GGL90diffTKEh =   /* GGL90 horizontal diffusivity for TKE ( m^2/s ). */
(PID.TID 0000.0001)                 0.000000000000000E+00
(PID.TID 0000.0001)     ;
(PID.TID 0000.0001) GGL90mixingLengthMin =   /* GGL90 minimum mixing length ( m ). */
(PID.TID 0000.0001)                 1.000000000000000E-08
(PID.TID 0000.0001)     ;
(PID.TID 0000.0001) mxlMaxFlag =   /* Flag for limiting mixing-length method */
(PID.TID 0000.0001)                       2
(PID.TID 0000.0001)     ;
(PID.TID 0000.0001) mxlSurfFlag =   /* GGL90 flag for near surface mixing. */
(PID.TID 0000.0001)                   T
(PID.TID 0000.0001)     ;
(PID.TID 0000.0001) GGL90: GGL90TKEFile =
(PID.TID 0000.0001) // =======================================================
(PID.TID 0000.0001) // End of GGL90 config. summary
(PID.TID 0000.0001) // =======================================================
(PID.TID 0000.0001) 
(PID.TID 0000.0001) 
(PID.TID 0000.0001)  SEAICE_READPARMS: opening data.seaice
(PID.TID 0000.0001)  OPEN_COPY_DATA_FILE: opening file data.seaice
(PID.TID 0000.0001) // =======================================================
(PID.TID 0000.0001) // Parameter file "data.seaice"
(PID.TID 0000.0001) // =======================================================
(PID.TID 0000.0001) ># SEAICE parameters
(PID.TID 0000.0001) > &SEAICE_PARM01
(PID.TID 0000.0001) >      SEAICEuseTILT=.FALSE.,
(PID.TID 0000.0001) >      SEAICEpresH0=2.,
(PID.TID 0000.0001) >      SEAICEpresPow0=1,
(PID.TID 0000.0001) >      SEAICEpresPow1=3,
(PID.TID 0000.0001) >      SEAICE_multDim=1,
(PID.TID 0000.0001) >      SEAICErestoreUnderIce=.TRUE.,
(PID.TID 0000.0001) >      SEAICE_area_max=0.95,
(PID.TID 0000.0001) >#for backward compatibility (before 2011 june 19, those were the defaults)
(PID.TID 0000.0001) >#     SEAICE_area_floor=0.15,
(PID.TID 0000.0001) >#     SEAICE_area_reg=0.15,
(PID.TID 0000.0001) >      SEAICE_salt0=4.,
(PID.TID 0000.0001) ># for long time step:
(PID.TID 0000.0001) >#      SEAICE_deltaTevp   = 720.,
(PID.TID 0000.0001) ># for regular time step:
(PID.TID 0000.0001) >#      SEAICE_deltaTevp   = 60.,
(PID.TID 0000.0001) ># for lsr:
(PID.TID 0000.0001) >      LSR_ERROR          = 2.e-4,
(PID.TID 0000.0001) >      SEAICEuseDYNAMICS  = .TRUE.,
(PID.TID 0000.0001) ># BAD OPTION -- DO NOT USE -- SEAICE_maskRHS     = .TRUE.,
(PID.TID 0000.0001) >      MIN_ATEMP          = -40.,
(PID.TID 0000.0001) >      MIN_TICE           = -40.,
(PID.TID 0000.0001) >      SEAICEadvScheme    = 30,
(PID.TID 0000.0001) >      SEAICEuseFluxForm = .TRUE.,
(PID.TID 0000.0001) >      SEAICEadvSnow      = .TRUE.,
(PID.TID 0000.0001) >#      SEAICEadvSalt      = .TRUE.,
(PID.TID 0000.0001) >      SEAICEdiffKhHeff   = 400.,
(PID.TID 0000.0001) >      SEAICEdiffKhArea   = 400.,
(PID.TID 0000.0001) >      SEAICEdiffKhSnow   = 400.,
(PID.TID 0000.0001) >#      SEAICEdiffKhSalt   = 400.,
(PID.TID 0000.0001) >      SEAICEuseFlooding  = .TRUE.,
(PID.TID 0000.0001) >      SEAICE_mcPheePiston= 3.858024691358025E-05,
(PID.TID 0000.0001) >      SEAICE_frazilFrac  = 1.,
(PID.TID 0000.0001) >      SEAICE_mcPheeTaper = 0.,
(PID.TID 0000.0001) >      SEAICE_areaLossFormula=2,
(PID.TID 0000.0001) >      SEAICEheatConsFix  = .TRUE.,
(PID.TID 0000.0001) >      SEAICE_tempFrz0    = -1.96,
(PID.TID 0000.0001) >      SEAICE_dTempFrz_dS = 0.,
(PID.TID 0000.0001) >      SEAICEuseMetricTerms = .TRUE.,
(PID.TID 0000.0001) >      SEAICE_no_slip     = .FALSE.,
(PID.TID 0000.0001) >      SEAICE_clipVelocities = .TRUE.,
(PID.TID 0000.0001) >#take 33% out of (1-albedo)
(PID.TID 0000.0001) >      SEAICE_dryIceAlb   = 0.84,
(PID.TID 0000.0001) >      SEAICE_wetIceAlb   = 0.78,
(PID.TID 0000.0001) >      SEAICE_drySnowAlb  = 0.90,
(PID.TID 0000.0001) >      SEAICE_wetSnowAlb  = 0.8 ,
(PID.TID 0000.0001) >#default albedos
(PID.TID 0000.0001) >      SEAICE_dryIceAlb_south   = 0.75
(PID.TID 0000.0001) >      SEAICE_wetIceAlb_south   = 0.66
(PID.TID 0000.0001) >      SEAICE_drySnowAlb_south  = 0.84
(PID.TID 0000.0001) >      SEAICE_wetSnowAlb_south  = 0.7
(PID.TID 0000.0001) > /
(PID.TID 0000.0001) >#
(PID.TID 0000.0001) > &SEAICE_PARM02
(PID.TID 0000.0001) > /
(PID.TID 0000.0001) >
(PID.TID 0000.0001) 
(PID.TID 0000.0001)  SEAICE_READPARMS: finished reading data.seaice
(PID.TID 0000.0001) SALT_PLUME_READPARMS: opening data.salt_plume
(PID.TID 0000.0001)  OPEN_COPY_DATA_FILE: opening file data.salt_plume
(PID.TID 0000.0001) // =======================================================
(PID.TID 0000.0001) // Parameter file "data.salt_plume"
(PID.TID 0000.0001) // =======================================================
(PID.TID 0000.0001) > &SALT_PLUME_PARM01
(PID.TID 0000.0001) ># SaltPlumeCriterion = 0.4D0,
(PID.TID 0000.0001) > SPsalFRAC= 0.5D0,
(PID.TID 0000.0001) >#SPsalFRAC= 0.25D0,
(PID.TID 0000.0001) >#SPsalFRAC= 0.0D0,
(PID.TID 0000.0001) > /
(PID.TID 0000.0001) 
(PID.TID 0000.0001) SALT_PLUME_READPARMS: finished reading data.salt_plume
(PID.TID 0000.0001) AUTODIFF_READPARMS: opening data.autodiff
(PID.TID 0000.0001)  OPEN_COPY_DATA_FILE: opening file data.autodiff
(PID.TID 0000.0001) // =======================================================
(PID.TID 0000.0001) // Parameter file "data.autodiff"
(PID.TID 0000.0001) // =======================================================
(PID.TID 0000.0001) ># =========================
(PID.TID 0000.0001) ># pkg AUTODIFF parameters :
(PID.TID 0000.0001) ># =========================
(PID.TID 0000.0001) >#  inAdExact :: get an exact adjoint (no approximation) (def=.True.)
(PID.TID 0000.0001) >#
(PID.TID 0000.0001) > &AUTODIFF_PARM01
(PID.TID 0000.0001) ># inAdExact = .FALSE.,
(PID.TID 0000.0001) ># useSEAICEinAdMode = .FALSE.,
(PID.TID 0000.0001) ># useKPPinAdMode = .FALSE.,
(PID.TID 0000.0001) ># useGMRediInAdMode = .FALSE.,
(PID.TID 0000.0001) > useGGL90inAdMode = .FALSE.,
(PID.TID 0000.0001) > useSALT_PLUMEinAdMode = .FALSE.,
(PID.TID 0000.0001) >#dont exist but should be added :
(PID.TID 0000.0001) ># useGGL90inAdMode = .FALSE.,
(PID.TID 0000.0001) ># useSPLUMEinAdMode = .FALSE.,
(PID.TID 0000.0001) > /
(PID.TID 0000.0001) 
(PID.TID 0000.0001) AUTODIFF_READPARMS: finished reading data.autodiff
(PID.TID 0000.0001) // ===================================
(PID.TID 0000.0001) // AUTODIFF parameters :
(PID.TID 0000.0001) // ===================================
(PID.TID 0000.0001) inAdExact = /* get an exact adjoint (no approximation) */
(PID.TID 0000.0001)                   T
(PID.TID 0000.0001)     ;
(PID.TID 0000.0001) useKPPinAdMode = /* use KPP in adjoint mode */
(PID.TID 0000.0001)                   F
(PID.TID 0000.0001)     ;
(PID.TID 0000.0001) useGMRediInAdMode = /* use GMRedi in adjoint mode */
(PID.TID 0000.0001)                   T
(PID.TID 0000.0001)     ;
(PID.TID 0000.0001) useSEAICEinAdMode = /* use SEAICE in adjoint mode */
(PID.TID 0000.0001)                   T
(PID.TID 0000.0001)     ;
(PID.TID 0000.0001) useGGL90inAdMode = /* use GGL90 in adjoint mode */
(PID.TID 0000.0001)                   F
(PID.TID 0000.0001)     ;
(PID.TID 0000.0001) useSALT_PLUMEinAdMode = /* use SALT_PLUME in adjoint mode */
(PID.TID 0000.0001)                   F
(PID.TID 0000.0001)     ;
(PID.TID 0000.0001) turnFreeDriftInAdMode= /* turn On/Off Free-Drift in adj/fwd mode */
(PID.TID 0000.0001)                   F
(PID.TID 0000.0001)     ;
(PID.TID 0000.0001) dumpAdVarExch = /* control adexch before dumpinp */
(PID.TID 0000.0001)                       2
(PID.TID 0000.0001)     ;
(PID.TID 0000.0001) mon_AdVarExch = /* control adexch before monitor */
(PID.TID 0000.0001)                       2
(PID.TID 0000.0001)     ;
(PID.TID 0000.0001) 
(PID.TID 0000.0001) OPTIM_READPARMS: opening data.optim
(PID.TID 0000.0001)  OPEN_COPY_DATA_FILE: opening file data.optim
(PID.TID 0000.0001) // =======================================================
(PID.TID 0000.0001) // Parameter file "data.optim"
(PID.TID 0000.0001) // =======================================================
(PID.TID 0000.0001) >#
(PID.TID 0000.0001) ># ********************************
(PID.TID 0000.0001) ># Off-line optimization parameters
(PID.TID 0000.0001) ># ********************************
(PID.TID 0000.0001) > &OPTIM
(PID.TID 0000.0001) > optimcycle=0,
(PID.TID 0000.0001) > /
(PID.TID 0000.0001) 
(PID.TID 0000.0001) OPTIM_READPARMS: finished reading data.optim
(PID.TID 0000.0001) CTRL_READPARMS: opening data.ctrl
(PID.TID 0000.0001)  OPEN_COPY_DATA_FILE: opening file data.ctrl
(PID.TID 0000.0001) // =======================================================
(PID.TID 0000.0001) // Parameter file "data.ctrl"
(PID.TID 0000.0001) // =======================================================
(PID.TID 0000.0001) ># *********************
(PID.TID 0000.0001) ># ECCO controlvariables
(PID.TID 0000.0001) ># *********************
(PID.TID 0000.0001) > &ctrl_nml
(PID.TID 0000.0001) >#
(PID.TID 0000.0001) > doSinglePrecTapelev=.TRUE.,
(PID.TID 0000.0001) > ctrlSmoothCorrel2D=.TRUE.,
(PID.TID 0000.0001) > ctrlSmoothCorrel3D=.TRUE.,
(PID.TID 0000.0001) >#to start from given xx*00.data files
(PID.TID 0000.0001) ># doinitxx = .FALSE.,
(PID.TID 0000.0001) ># doMainUnpack = .FALSE.,
(PID.TID 0000.0001) >#to start from given ecco_ctrl... files
(PID.TID 0000.0001) ># doinitxx = .FALSE.,
(PID.TID 0000.0001) >#
(PID.TID 0000.0001) >#doPackDiag = .TRUE.,
(PID.TID 0000.0001) > forcingPrecond=20.,
(PID.TID 0000.0001) ># doZscalePack = .TRUE.,
(PID.TID 0000.0001) ># doZscaleUnpack = .TRUE.,
(PID.TID 0000.0001) ># delZexp = -1.,
(PID.TID 0000.0001) >#
(PID.TID 0000.0001) > xx_theta_file='xx_theta',
(PID.TID 0000.0001) > xx_salt_file='xx_salt',
(PID.TID 0000.0001) >#
(PID.TID 0000.0001) > xx_hflux_file='xx_hfl',
(PID.TID 0000.0001) > xx_hfluxstartdate1=19920101,
(PID.TID 0000.0001) > xx_hfluxstartdate2=60000,
(PID.TID 0000.0001) > xx_hfluxperiod=1209600.0,
(PID.TID 0000.0001) >#
(PID.TID 0000.0001) > xx_sflux_file='xx_sfl',
(PID.TID 0000.0001) > xx_sfluxstartdate1=19920101,
(PID.TID 0000.0001) > xx_sfluxstartdate2=60000,
(PID.TID 0000.0001) > xx_sfluxperiod=1209600.0,
(PID.TID 0000.0001) >#
(PID.TID 0000.0001) > xx_tauu_file='xx_tauu',
(PID.TID 0000.0001) > xx_tauustartdate1=19920101,
(PID.TID 0000.0001) > xx_tauustartdate2=60000,
(PID.TID 0000.0001) > xx_tauuperiod=1209600.0,
(PID.TID 0000.0001) >#
(PID.TID 0000.0001) > xx_tauv_file='xx_tauv',
(PID.TID 0000.0001) > xx_tauvstartdate1=19920101,
(PID.TID 0000.0001) > xx_tauvstartdate2=60000,
(PID.TID 0000.0001) > xx_tauvperiod=1209600.0,
(PID.TID 0000.0001) >#
(PID.TID 0000.0001) > xx_atemp_file='xx_atemp',
(PID.TID 0000.0001) > xx_atempstartdate1=19920101,
(PID.TID 0000.0001) > xx_atempstartdate2=60000,
(PID.TID 0000.0001) > xx_atempperiod=1209600.0,
(PID.TID 0000.0001) >#
(PID.TID 0000.0001) > xx_aqh_file='xx_aqh',
(PID.TID 0000.0001) > xx_aqhstartdate1=19920101,
(PID.TID 0000.0001) > xx_aqhstartdate2=60000,
(PID.TID 0000.0001) > xx_aqhperiod=1209600.0,
(PID.TID 0000.0001) >#
(PID.TID 0000.0001) > xx_uwind_file='xx_uwind',
(PID.TID 0000.0001) > xx_uwindstartdate1=19920101,
(PID.TID 0000.0001) > xx_uwindstartdate2=60000,
(PID.TID 0000.0001) > xx_uwindperiod=1209600.0,
(PID.TID 0000.0001) >#
(PID.TID 0000.0001) > xx_vwind_file='xx_vwind',
(PID.TID 0000.0001) > xx_vwindstartdate1=19920101,
(PID.TID 0000.0001) > xx_vwindstartdate2=60000,
(PID.TID 0000.0001) > xx_vwindperiod=1209600.0,
(PID.TID 0000.0001) >#
(PID.TID 0000.0001) > xx_precip_file='xx_precip',
(PID.TID 0000.0001) > xx_precipstartdate1=19920101,
(PID.TID 0000.0001) > xx_precipstartdate2=60000,
(PID.TID 0000.0001) > xx_precipperiod=1209600.0,
(PID.TID 0000.0001) >#
(PID.TID 0000.0001) > xx_swdown_file='xx_swdown',
(PID.TID 0000.0001) > xx_swdownstartdate1=19920101,
(PID.TID 0000.0001) > xx_swdownstartdate2=60000,
(PID.TID 0000.0001) > xx_swdownperiod=1209600.0,
(PID.TID 0000.0001) >#
(PID.TID 0000.0001) > xx_swflux_file='xx_swflux',
(PID.TID 0000.0001) > xx_swfluxstartdate1=19920101,
(PID.TID 0000.0001) > xx_swfluxstartdate2=60000,
(PID.TID 0000.0001) > xx_swfluxperiod=1209600.0,
(PID.TID 0000.0001) >#
(PID.TID 0000.0001) > xx_lwdown_file='xx_lwdown',
(PID.TID 0000.0001) > xx_lwdownstartdate1=19920101,
(PID.TID 0000.0001) > xx_lwdownstartdate2=60000,
(PID.TID 0000.0001) > xx_lwdownperiod=1209600.0,
(PID.TID 0000.0001) >#
(PID.TID 0000.0001) > xx_lwflux_file='xx_lwflux',
(PID.TID 0000.0001) > xx_lwfluxstartdate1=19920101,
(PID.TID 0000.0001) > xx_lwfluxstartdate2=60000,
(PID.TID 0000.0001) > xx_lwfluxperiod=1209600.0,
(PID.TID 0000.0001) >#
(PID.TID 0000.0001) > /
(PID.TID 0000.0001) >#
(PID.TID 0000.0001) ># *********************
(PID.TID 0000.0001) ># names for ctrl_pack/unpack
(PID.TID 0000.0001) ># *********************
(PID.TID 0000.0001) > &ctrl_packnames
(PID.TID 0000.0001) > ctrlname='ecco_ctrl',
(PID.TID 0000.0001) > costname='ecco_cost',
(PID.TID 0000.0001) > /
(PID.TID 0000.0001) >
(PID.TID 0000.0001) 
(PID.TID 0000.0001) CTRL_READPARMS: finished reading data.ctrl
(PID.TID 0000.0001) COST_READPARMS: opening data.cost
(PID.TID 0000.0001)  OPEN_COPY_DATA_FILE: opening file data.cost
(PID.TID 0000.0001) // =======================================================
(PID.TID 0000.0001) // Parameter file "data.cost"
(PID.TID 0000.0001) // =======================================================
(PID.TID 0000.0001) >#
(PID.TID 0000.0001) >#
(PID.TID 0000.0001) ># ******************
(PID.TID 0000.0001) ># cost function
(PID.TID 0000.0001) ># ******************
(PID.TID 0000.0001) > &COST_NML
(PID.TID 0000.0001) > /
(PID.TID 0000.0001) 
(PID.TID 0000.0001) COST_READPARMS: finished reading data.cost
(PID.TID 0000.0001) GRDCHK_READPARMS: opening data.grdchk
(PID.TID 0000.0001)  OPEN_COPY_DATA_FILE: opening file data.grdchk
(PID.TID 0000.0001) // =======================================================
(PID.TID 0000.0001) // Parameter file "data.grdchk"
(PID.TID 0000.0001) // =======================================================
(PID.TID 0000.0001) ># *******************
(PID.TID 0000.0001) ># ECCO gradient check
(PID.TID 0000.0001) ># *******************
(PID.TID 0000.0001) > &GRDCHK_NML
(PID.TID 0000.0001) > grdchk_eps       = 1.d-2,
(PID.TID 0000.0001) >#  iglopos         = 6,
(PID.TID 0000.0001) >#  jglopos         = 17,
(PID.TID 0000.0001) >#  kglopos         = 1,
(PID.TID 0000.0001) > nbeg             = 1,
(PID.TID 0000.0001) > nstep            = 1,
(PID.TID 0000.0001) > nend             = 4,
(PID.TID 0000.0001) > grdchkvarindex   = 1,
(PID.TID 0000.0001) > /
(PID.TID 0000.0001) 
(PID.TID 0000.0001) GRDCHK_READPARMS: finished reading data.grdchk
(PID.TID 0000.0001) 
(PID.TID 0000.0001) // =======================================================
(PID.TID 0000.0001) // Gradient check configuration  >>> START <<<
(PID.TID 0000.0001) // =======================================================
(PID.TID 0000.0001) 
(PID.TID 0000.0001)   eps:                              0.100E-01
(PID.TID 0000.0001)   First location:                           1
(PID.TID 0000.0001)   Last location:                            4
(PID.TID 0000.0001)   Increment:                                1
(PID.TID 0000.0001)   grdchkWhichProc:                          0
(PID.TID 0000.0001)   iLocTile =       1  ,    jLocTile =       1
(PID.TID 0000.0001) 
(PID.TID 0000.0001) // =======================================================
(PID.TID 0000.0001) // Gradient check configuration  >>> END <<<
(PID.TID 0000.0001) // =======================================================
(PID.TID 0000.0001) 
(PID.TID 0000.0001) PROFILES_READPARMS: opening data.smooth
(PID.TID 0000.0001)  OPEN_COPY_DATA_FILE: opening file data.smooth
(PID.TID 0000.0001) // =======================================================
(PID.TID 0000.0001) // Parameter file "data.smooth"
(PID.TID 0000.0001) // =======================================================
(PID.TID 0000.0001) > &SMOOTH_NML
(PID.TID 0000.0001) ># caution : if you edit this file you may
(PID.TID 0000.0001) ># need to replace smooth2*norm001 accordingly
(PID.TID 0000.0001) > smooth2Dnbt(1)=30
(PID.TID 0000.0001) > smooth2Dtype(1)=1
(PID.TID 0000.0001) > smooth2Dsize(1)=2
(PID.TID 0000.0001) > smooth2Dfilter(1)=0
(PID.TID 0000.0001) > smooth3Dnbt(1)=30
(PID.TID 0000.0001) > smooth3DtypeH(1)=1
(PID.TID 0000.0001) > smooth3DsizeH(1)=3
(PID.TID 0000.0001) > smooth3DtypeZ(1)=1
(PID.TID 0000.0001) > smooth3DsizeZ(1)=3
(PID.TID 0000.0001) > smooth3Dfilter(1)=0
(PID.TID 0000.0001) > /
(PID.TID 0000.0001) 
(PID.TID 0000.0001) PROFILES_READPARMS: finished reading data.smooth
(PID.TID 0000.0001) ECCO_READPARMS: opening data.ecco
(PID.TID 0000.0001)  OPEN_COPY_DATA_FILE: opening file data.ecco
(PID.TID 0000.0001) // =======================================================
(PID.TID 0000.0001) // Parameter file "data.ecco"
(PID.TID 0000.0001) // =======================================================
(PID.TID 0000.0001) >#
(PID.TID 0000.0001) >#
(PID.TID 0000.0001) ># ******************
(PID.TID 0000.0001) ># ECCO cost function
(PID.TID 0000.0001) ># ******************
(PID.TID 0000.0001) >#
(PID.TID 0000.0001) > &ECCO_COST_NML
(PID.TID 0000.0001) >#
(PID.TID 0000.0001) > temp0errfile     = 'some_T_sigma.bin',
(PID.TID 0000.0001) > salt0errfile     = 'some_S_sigma.bin',
(PID.TID 0000.0001) > data_errfile    = 'data.err',
(PID.TID 0000.0001) >#
(PID.TID 0000.0001) > whflux0              = 20.0,
(PID.TID 0000.0001) > wsflux0              = 3.0E-8,
(PID.TID 0000.0001) > wtau0                = 2.0E-2,
(PID.TID 0000.0001) >#
(PID.TID 0000.0001) > watemp0              = 1.0,
(PID.TID 0000.0001) > waqh0                = 0.5E-3,
(PID.TID 0000.0001) > wprecip0             = 1.5E-8,
(PID.TID 0000.0001) > wswflux0             = 15.0,
(PID.TID 0000.0001) > wswdown0             = 15.0,
(PID.TID 0000.0001) > wlwdown0             = 15.0,
(PID.TID 0000.0001) > wwind0               = 1.0,
(PID.TID 0000.0001) >#
(PID.TID 0000.0001) > wkapgm0              = 5.0E3,
(PID.TID 0000.0001) > wkapredi0            = 5.0E3,
(PID.TID 0000.0001) > wdiffkr0             = 1.0E-4,
(PID.TID 0000.0001) > wedtau0              = 1.0E0,
(PID.TID 0000.0001) > wbottomdrag0         = 1.0E-5,
(PID.TID 0000.0001) >#
(PID.TID 0000.0001) > mult_temp0  = 1.,
(PID.TID 0000.0001) > mult_salt0  = 1.,
(PID.TID 0000.0001) >#
(PID.TID 0000.0001) > mult_hflux  = 1.,
(PID.TID 0000.0001) > mult_sflux  = 1.,
(PID.TID 0000.0001) > mult_tauu   = 1.,
(PID.TID 0000.0001) > mult_tauv   = 1.,
(PID.TID 0000.0001) >#
(PID.TID 0000.0001) > mult_atemp  = 1.,
(PID.TID 0000.0001) > mult_aqh    = 1.,
(PID.TID 0000.0001) > mult_uwind  = 1.,
(PID.TID 0000.0001) > mult_vwind  = 1.,
(PID.TID 0000.0001) > mult_precip = 1.,
(PID.TID 0000.0001) > mult_swflux = 1.,
(PID.TID 0000.0001) > mult_swdown = 1.,
(PID.TID 0000.0001) > mult_lwflux = 1.,
(PID.TID 0000.0001) > mult_lwdown = 1.,
(PID.TID 0000.0001) >#
(PID.TID 0000.0001) > mult_kapgm   = 1.,
(PID.TID 0000.0001) > mult_kapredi = 1.,
(PID.TID 0000.0001) > mult_diffkr  = 1.,
(PID.TID 0000.0001) > mult_edtau   = 1.,
(PID.TID 0000.0001) > mult_bottomdrag   = 1.,
(PID.TID 0000.0001) >#
(PID.TID 0000.0001) > tdatfile        = 'some_T_atlas.bin',
(PID.TID 0000.0001) > sdatfile        = 'some_S_atlas.bin',
(PID.TID 0000.0001) > temperrfile     = 'some_T_sigma.bin',
(PID.TID 0000.0001) > salterrfile     = 'some_S_sigma.bin',
(PID.TID 0000.0001) >#
(PID.TID 0000.0001) > mult_temp   = 1.,
(PID.TID 0000.0001) > mult_salt   = 1.,
(PID.TID 0000.0001) >#
(PID.TID 0000.0001) > cost_iprec  = 32,
(PID.TID 0000.0001) > cost_yftype = 'RL',
(PID.TID 0000.0001) >#
(PID.TID 0000.0001) > /
(PID.TID 0000.0001) >#
(PID.TID 0000.0001) > &ECCO_GENCOST_NML
(PID.TID 0000.0001) > /
(PID.TID 0000.0001) >#
(PID.TID 0000.0001) 
(PID.TID 0000.0001) ECCO_READPARMS: finished reading #1: ecco_cost_nml
(PID.TID 0000.0001) ECCO_READPARMS: finished reading #2: ecco_gencost_nml
(PID.TID 0000.0001) ECCO_READPARMS: done
(PID.TID 0000.0001) PROFILES_READPARMS: opening data.profiles
(PID.TID 0000.0001)  OPEN_COPY_DATA_FILE: opening file data.profiles
(PID.TID 0000.0001) // =======================================================
(PID.TID 0000.0001) // Parameter file "data.profiles"
(PID.TID 0000.0001) // =======================================================
(PID.TID 0000.0001) >#
(PID.TID 0000.0001) ># ******************
(PID.TID 0000.0001) ># PROFILES cost function
(PID.TID 0000.0001) ># ******************
(PID.TID 0000.0001) > &PROFILES_NML
(PID.TID 0000.0001) > profilesDoGenGrid=.TRUE.,
(PID.TID 0000.0001) >#
(PID.TID 0000.0001) > /
(PID.TID 0000.0001) 
(PID.TID 0000.0001) PROFILES_READPARMS: finished reading data.profiles
(PID.TID 0000.0001)  DIAGNOSTICS_READPARMS: opening data.diagnostics
(PID.TID 0000.0001)  OPEN_COPY_DATA_FILE: opening file data.diagnostics
(PID.TID 0000.0001) // =======================================================
(PID.TID 0000.0001) // Parameter file "data.diagnostics"
(PID.TID 0000.0001) // =======================================================
(PID.TID 0000.0001) ># Diagnostic Package Choices
(PID.TID 0000.0001) >#-----------------
(PID.TID 0000.0001) ># for each output-stream:
(PID.TID 0000.0001) >#  filename(n) : prefix of the output file name (only 8.c long) for outp.stream n
(PID.TID 0000.0001) >#  frequency(n):< 0 : write snap-shot output every multiple of |frequency| (iter)
(PID.TID 0000.0001) >#               > 0 : write time-average output every multiple of frequency (iter)
(PID.TID 0000.0001) >#  levels(:,n) : list of levels to write to file (Notes: declared as REAL)
(PID.TID 0000.0001) >#                 when this entry is missing, select all common levels of this list
(PID.TID 0000.0001) >#  fields(:,n) : list of diagnostics fields (8.c) (see "available_diagnostics" file
(PID.TID 0000.0001) >#                 for the list of all available diag. in this particular config)
(PID.TID 0000.0001) >#--------------------------------------------------------------------
(PID.TID 0000.0001) >#
(PID.TID 0000.0001) > &diagnostics_list
(PID.TID 0000.0001) >#
(PID.TID 0000.0001) >   dumpatlast = .TRUE.,
(PID.TID 0000.0001) >#
(PID.TID 0000.0001) >#---
(PID.TID 0000.0001) >  frequency(1) = 2635200.0,
(PID.TID 0000.0001) >   fields(1:23,1) = 'ETAN    ','SIarea  ','SIheff ','SIhsnow ',
(PID.TID 0000.0001) >#stuff that is not quite state variables (and may not be quite
(PID.TID 0000.0001) >#synchroneous) but are added here to reduce number of files
(PID.TID 0000.0001) >                 'DETADT2 ','PHIBOT  ','sIceLoad',
(PID.TID 0000.0001) >                 'MXLDEPTH','oceSPDep',
(PID.TID 0000.0001) >                 'SIatmQnt','SIatmFW ','oceQnet ','oceFWflx',
(PID.TID 0000.0001) >                 'oceTAUX ','oceTAUY ',
(PID.TID 0000.0001) >                 'ADVxHEFF','ADVyHEFF','DFxEHEFF','DFyEHEFF',
(PID.TID 0000.0001) >                 'ADVxSNOW','ADVySNOW','DFxESNOW','DFyESNOW',
(PID.TID 0000.0001) >   filename(1) = 'diags/state_2d_set1',
(PID.TID 0000.0001) >#---
(PID.TID 0000.0001) >  frequency(2) = 2635200.0,
(PID.TID 0000.0001) >   fields(1:3,2) = 'THETA   ','SALT    ',
(PID.TID 0000.0001) >#stuff that is not quite state variables (and may not be quite
(PID.TID 0000.0001) >#synchroneous) but are added here to reduce file number
(PID.TID 0000.0001) >                 'DRHODR  ',
(PID.TID 0000.0001) >#                'KPPviscA','KPPdiffT','KPPdiffTS',
(PID.TID 0000.0001) >#                'GGL90TKE','GGL90Lmx','GGL90Prl',
(PID.TID 0000.0001) >#                'GGL90ArU','GGL90ArV','GGL90Kr ',
(PID.TID 0000.0001) >   filename(2) = 'diags/state_3d_set1',
(PID.TID 0000.0001) >#---
(PID.TID 0000.0001) >  frequency(5) = 2635200.0,
(PID.TID 0000.0001) >   fields(1:5,5) = 'UVELMASS','VVELMASS','WVELMASS',
(PID.TID 0000.0001) >                 'GM_PsiX ','GM_PsiY ',
(PID.TID 0000.0001) >#full 3D temperature fluxes : 'DFxE_TH ','DFyE_TH ','DFrE_TH ','DFrI_TH ','ADVx_TH ','ADVy_TH ','ADVr_TH ',
(PID.TID 0000.0001) >#but for present computations I only need the vertically integrated horizontal components (see trsp_3d_set2)
(PID.TID 0000.0001) >   filename(5) = 'diags/trsp_3d_set1',
(PID.TID 0000.0001) >#---
(PID.TID 0000.0001) ># frequency(6) = 2635200.0,
(PID.TID 0000.0001) >  frequency(6) = 2635200.0,
(PID.TID 0000.0001) >   fields(1:8,6) = 'DFxE_TH ','DFyE_TH ','ADVx_TH ','ADVy_TH ',
(PID.TID 0000.0001) >                 'DFxE_SLT','DFyE_SLT','ADVx_SLT','ADVy_SLT',
(PID.TID 0000.0001) >   filename(6) = 'diags/trsp_3d_set2',
(PID.TID 0000.0001) >#vertically integrate fields we only use to compute vertically integr.
(PID.TID 0000.0001) >#meridional transports (also omit vertical transports, both to save space)
(PID.TID 0000.0001) >   fileFlags(6) = ' I      ',
(PID.TID 0000.0001) >#---
(PID.TID 0000.0001) >#---
(PID.TID 0000.0001) >#---
(PID.TID 0000.0001) >#---
(PID.TID 0000.0001) ># frequency = 604800.0 corresponds to 36.5 day averages, which
(PID.TID 0000.0001) ># leads to 10 fields a year -- this choice was made because
(PID.TID 0000.0001) ># 30.5 days = 2635200 s leads to different times for averages
(PID.TID 0000.0001) ># and snapshots in the case when calendarDumps is used
(PID.TID 0000.0001) >#
(PID.TID 0000.0001) >  frequency(7) = -604800.0,
(PID.TID 0000.0001) >   fields(1:6,7) = 'ETAN    ','SIheff  ','SIhsnow ',
(PID.TID 0000.0001) >                 'SIarea  ','sIceLoad','PHIBOT  ',
(PID.TID 0000.0001) >   filename(7) = 'diags/budg2d_snap_set1',
(PID.TID 0000.0001) >   timePhase(7)= 0.,
(PID.TID 0000.0001) >   fileFlags(7) = 'D       ',
(PID.TID 0000.0001) >#---
(PID.TID 0000.0001) >  frequency(8) = -604800.0,
(PID.TID 0000.0001) >   fields(1:2,8) = 'THETA   ','SALT    ',
(PID.TID 0000.0001) >   filename(8) = 'diags/budg2d_snap_set2',
(PID.TID 0000.0001) >   timePhase(8)= 0.,
(PID.TID 0000.0001) >   fileFlags(8) = 'DI      ',
(PID.TID 0000.0001) >#---
(PID.TID 0000.0001) >  frequency(10) = 604800.0,
(PID.TID 0000.0001) >   fields(1:8,10) = 'oceFWflx','SIatmFW ',
(PID.TID 0000.0001) >                 'TFLUX   ','SItflux ',
(PID.TID 0000.0001) >                 'SFLUX   ','oceSPflx',
(PID.TID 0000.0001) >                 'SRELAX  ','TRELAX  ',
(PID.TID 0000.0001) >   filename(10) = 'diags/budg2d_zflux_set1',
(PID.TID 0000.0001) >   fileFlags(10) = 'D       ',
(PID.TID 0000.0001) >#---
(PID.TID 0000.0001) >  frequency(11) = 604800.0,
(PID.TID 0000.0001) >   fields(1:10,11) ='UVELMASS','VVELMASS',
(PID.TID 0000.0001) >                 'ADVx_TH ','ADVy_TH ','DFxE_TH ','DFyE_TH ',
(PID.TID 0000.0001) >                 'ADVx_SLT','ADVy_SLT','DFxE_SLT','DFyE_SLT',
(PID.TID 0000.0001) >   filename(11) = 'diags/budg2d_hflux_set1',
(PID.TID 0000.0001) >   fileFlags(11) = 'DI      ',
(PID.TID 0000.0001) >#---
(PID.TID 0000.0001) >  frequency(12) = 604800.0,
(PID.TID 0000.0001) >   fields(1:8,12) ='ADVxHEFF','ADVyHEFF','DFxEHEFF','DFyEHEFF',
(PID.TID 0000.0001) >                 'ADVxSNOW','ADVySNOW','DFxESNOW','DFyESNOW',
(PID.TID 0000.0001) >   filename(12) = 'diags/budg2d_hflux_set2',
(PID.TID 0000.0001) >   fileFlags(12) = 'D       ',
(PID.TID 0000.0001) >#---
(PID.TID 0000.0001) >  frequency(13) = 604800.0,
(PID.TID 0000.0001) >   fields(1:13,13) ='EXFpreci','EXFevap ','EXFroff ','EXFempmr',
(PID.TID 0000.0001) >                 'EXFswdn ','EXFlwdn ','EXFswnet','EXFlwnet','EXFqnet ',
(PID.TID 0000.0001) >                 'EXFatemp','EXFaqh  ','EXFtaux ','EXFtauy ',
(PID.TID 0000.0001) >   filename(13) = 'diags/exf_zflux_set1',
(PID.TID 0000.0001) >#---
(PID.TID 0000.0001) >#---
(PID.TID 0000.0001) >#---
(PID.TID 0000.0001) >##
(PID.TID 0000.0001) > /
(PID.TID 0000.0001) >#
(PID.TID 0000.0001) >#
(PID.TID 0000.0001) ># Parameter for Diagnostics of per level statistics:
(PID.TID 0000.0001) >#-----------------
(PID.TID 0000.0001) ># for each output-stream:
(PID.TID 0000.0001) >#  stat_fname(n) : prefix of the output file name (only 8.c long) for outp.stream n
(PID.TID 0000.0001) >#  stat_freq(n):< 0 : write snap-shot output every |stat_freq| seconds
(PID.TID 0000.0001) >#               > 0 : write time-average output every stat_freq seconds
(PID.TID 0000.0001) >#  stat_phase(n)    : write at time = stat_phase + multiple of |stat_freq|
(PID.TID 0000.0001) >#  stat_region(:,n) : list of "regions" (default: 1 region only=global)
(PID.TID 0000.0001) >#  stat_fields(:,n) : list of diagnostics fields (8.c) (see "available_diagnostics.log"
(PID.TID 0000.0001) >#                 file for the list of all available diag. in this particular config)
(PID.TID 0000.0001) >#-----------------
(PID.TID 0000.0001) > &DIAG_STATIS_PARMS
(PID.TID 0000.0001) ># diagSt_regMaskFile='basin_masks_eccollc_90x50.bin',
(PID.TID 0000.0001) ># nSetRegMskFile=1,
(PID.TID 0000.0001) ># set_regMask(1)= 1,  1,  1,  1,  1,  1,  1,  1,  1,
(PID.TID 0000.0001) >#                 1,  1,  1,  1,  1,  1,  1,  1
(PID.TID 0000.0001) ># val_regMask(1)= 1., 2., 3., 4., 5., 6., 7., 8., 9.,
(PID.TID 0000.0001) >#                10.,11.,12.,13.,14.,15.,16.,17.
(PID.TID 0000.0001) >##---
(PID.TID 0000.0001) ># stat_fields(1,1)= 'ETAN    ','ETANSQ  ','DETADT2 ',
(PID.TID 0000.0001) >#                   'UVEL    ','VVEL    ','WVEL    ',
(PID.TID 0000.0001) >#                   'THETA   ','SALT    ',
(PID.TID 0000.0001) >#    stat_fname(1)= 'dynStDiag',
(PID.TID 0000.0001) >#     stat_freq(1)= 2635200.,
(PID.TID 0000.0001) ># stat_region(1,1)=  1, 2, 3, 4, 5, 6, 7, 8, 9,
(PID.TID 0000.0001) >#                   10,11,12,13,14,15,16,17
(PID.TID 0000.0001) >##---
(PID.TID 0000.0001) ># stat_fields(1,2)= 'oceTAUX ','oceTAUY ',
(PID.TID 0000.0001) >#                   'surForcT','surForcS','TFLUX   ','SFLUX   ',
(PID.TID 0000.0001) >#                   'oceQnet ','oceSflux','oceFWflx',
(PID.TID 0000.0001) >#    stat_fname(2)= 'surfStDiag',
(PID.TID 0000.0001) >#     stat_freq(2)= 2635200.,
(PID.TID 0000.0001) ># stat_region(1,2)=  1, 2, 3, 4, 5, 6, 7, 8, 9,
(PID.TID 0000.0001) >#                   10,11,12,13,14,15,16,17
(PID.TID 0000.0001) > /
(PID.TID 0000.0001) 
(PID.TID 0000.0001) S/R DIAGNOSTICS_READPARMS, read namelist "diagnostics_list": start
(PID.TID 0000.0001) S/R DIAGNOSTICS_READPARMS, read namelist "diagnostics_list": OK
(PID.TID 0000.0001) S/R DIAGNOSTICS_READPARMS, read namelist "DIAG_STATIS_PARMS": start
(PID.TID 0000.0001) S/R DIAGNOSTICS_READPARMS, read namelist "DIAG_STATIS_PARMS": OK
(PID.TID 0000.0001)  DIAGNOSTICS_READPARMS: global parameter summary:
(PID.TID 0000.0001)  dumpAtLast = /* always write time-ave diags at the end */
(PID.TID 0000.0001)                   T
(PID.TID 0000.0001)     ;
(PID.TID 0000.0001)  diag_mnc =   /* write NetCDF output files */
(PID.TID 0000.0001)                   F
(PID.TID 0000.0001)     ;
(PID.TID 0000.0001)  useMissingValue = /* put MissingValue where mask = 0 */
(PID.TID 0000.0001)                   F
(PID.TID 0000.0001)     ;
(PID.TID 0000.0001)  diagCG_maxIters = /* max number of iters in diag_cg2d */
(PID.TID 0000.0001)                     300
(PID.TID 0000.0001)     ;
(PID.TID 0000.0001)  diagCG_resTarget = /* residual target for diag_cg2d */
(PID.TID 0000.0001)                 1.000000000000000E-07
(PID.TID 0000.0001)     ;
(PID.TID 0000.0001) -----------------------------------------------------
(PID.TID 0000.0001)  DIAGNOSTICS_READPARMS: active diagnostics summary:
(PID.TID 0000.0001) -----------------------------------------------------
(PID.TID 0000.0001) Creating Output Stream: diags/state_2d_set1
(PID.TID 0000.0001) Output Frequency:    2635200.000000 ; Phase:           0.000000
(PID.TID 0000.0001)  Averaging Freq.:    2635200.000000 , Phase:           0.000000 , Cycle:   1
(PID.TID 0000.0001)  missing value:  1.234567000000E+05 ; for integers:   123456789
(PID.TID 0000.0001)  Levels:    will be set later
(PID.TID 0000.0001)  Fields:    ETAN     SIarea   SIheff   SIhsnow  DETADT2  PHIBOT   sIceLoad MXLDEPTH oceSPDep SIatmQnt
(PID.TID 0000.0001)  Fields:    SIatmFW  oceQnet  oceFWflx oceTAUX  oceTAUY  ADVxHEFF ADVyHEFF DFxEHEFF DFyEHEFF ADVxSNOW
(PID.TID 0000.0001)  Fields:    ADVySNOW DFxESNOW DFyESNOW
(PID.TID 0000.0001) Creating Output Stream: diags/state_3d_set1
(PID.TID 0000.0001) Output Frequency:    2635200.000000 ; Phase:           0.000000
(PID.TID 0000.0001)  Averaging Freq.:    2635200.000000 , Phase:           0.000000 , Cycle:   1
(PID.TID 0000.0001)  missing value:  1.234567000000E+05 ; for integers:   123456789
(PID.TID 0000.0001)  Levels:    will be set later
(PID.TID 0000.0001)  Fields:    THETA    SALT     DRHODR
(PID.TID 0000.0001) Creating Output Stream: diags/trsp_3d_set1
(PID.TID 0000.0001) Output Frequency:    2635200.000000 ; Phase:           0.000000
(PID.TID 0000.0001)  Averaging Freq.:    2635200.000000 , Phase:           0.000000 , Cycle:   1
(PID.TID 0000.0001)  missing value:  1.234567000000E+05 ; for integers:   123456789
(PID.TID 0000.0001)  Levels:    will be set later
(PID.TID 0000.0001)  Fields:    UVELMASS VVELMASS WVELMASS GM_PsiX  GM_PsiY
(PID.TID 0000.0001) Creating Output Stream: diags/trsp_3d_set2
(PID.TID 0000.0001) Output Frequency:    2635200.000000 ; Phase:           0.000000
(PID.TID 0000.0001)  Averaging Freq.:    2635200.000000 , Phase:           0.000000 , Cycle:   1
(PID.TID 0000.0001)  missing value:  1.234567000000E+05 ; for integers:   123456789 ; F-Flags=" I      "
(PID.TID 0000.0001)  Cumulate all Levels (to be set later)
(PID.TID 0000.0001)  Fields:    DFxE_TH  DFyE_TH  ADVx_TH  ADVy_TH  DFxE_SLT DFyE_SLT ADVx_SLT ADVy_SLT
(PID.TID 0000.0001) Creating Output Stream: diags/budg2d_snap_set1
(PID.TID 0000.0001) Output Frequency:    -604800.000000 ; Phase:           0.000000
(PID.TID 0000.0001)  Averaging Freq.:          0.000000 , Phase:           0.000000 , Cycle:   1
(PID.TID 0000.0001)  missing value:  1.234567000000E+05 ; for integers:   123456789 ; F-Flags="D       "
(PID.TID 0000.0001)  Levels:    will be set later
(PID.TID 0000.0001)  Fields:    ETAN     SIheff   SIhsnow  SIarea   sIceLoad PHIBOT
(PID.TID 0000.0001) Creating Output Stream: diags/budg2d_snap_set2
(PID.TID 0000.0001) Output Frequency:    -604800.000000 ; Phase:           0.000000
(PID.TID 0000.0001)  Averaging Freq.:          0.000000 , Phase:           0.000000 , Cycle:   1
(PID.TID 0000.0001)  missing value:  1.234567000000E+05 ; for integers:   123456789 ; F-Flags="DI      "
(PID.TID 0000.0001)  Cumulate all Levels (to be set later)
(PID.TID 0000.0001)  Fields:    THETA    SALT
(PID.TID 0000.0001) Creating Output Stream: diags/budg2d_zflux_set1
(PID.TID 0000.0001) Output Frequency:     604800.000000 ; Phase:           0.000000
(PID.TID 0000.0001)  Averaging Freq.:     604800.000000 , Phase:           0.000000 , Cycle:   1
(PID.TID 0000.0001)  missing value:  1.234567000000E+05 ; for integers:   123456789 ; F-Flags="D       "
(PID.TID 0000.0001)  Levels:    will be set later
(PID.TID 0000.0001)  Fields:    oceFWflx SIatmFW  TFLUX    SItflux  SFLUX    oceSPflx SRELAX   TRELAX
(PID.TID 0000.0001) Creating Output Stream: diags/budg2d_hflux_set1
(PID.TID 0000.0001) Output Frequency:     604800.000000 ; Phase:           0.000000
(PID.TID 0000.0001)  Averaging Freq.:     604800.000000 , Phase:           0.000000 , Cycle:   1
(PID.TID 0000.0001)  missing value:  1.234567000000E+05 ; for integers:   123456789 ; F-Flags="DI      "
(PID.TID 0000.0001)  Cumulate all Levels (to be set later)
(PID.TID 0000.0001)  Fields:    UVELMASS VVELMASS ADVx_TH  ADVy_TH  DFxE_TH  DFyE_TH  ADVx_SLT ADVy_SLT DFxE_SLT DFyE_SLT
(PID.TID 0000.0001) Creating Output Stream: diags/budg2d_hflux_set2
(PID.TID 0000.0001) Output Frequency:     604800.000000 ; Phase:           0.000000
(PID.TID 0000.0001)  Averaging Freq.:     604800.000000 , Phase:           0.000000 , Cycle:   1
(PID.TID 0000.0001)  missing value:  1.234567000000E+05 ; for integers:   123456789 ; F-Flags="D       "
(PID.TID 0000.0001)  Levels:    will be set later
(PID.TID 0000.0001)  Fields:    ADVxHEFF ADVyHEFF DFxEHEFF DFyEHEFF ADVxSNOW ADVySNOW DFxESNOW DFyESNOW
(PID.TID 0000.0001) Creating Output Stream: diags/exf_zflux_set1
(PID.TID 0000.0001) Output Frequency:     604800.000000 ; Phase:           0.000000
(PID.TID 0000.0001)  Averaging Freq.:     604800.000000 , Phase:           0.000000 , Cycle:   1
(PID.TID 0000.0001)  missing value:  1.234567000000E+05 ; for integers:   123456789
(PID.TID 0000.0001)  Levels:    will be set later
(PID.TID 0000.0001)  Fields:    EXFpreci EXFevap  EXFroff  EXFempmr EXFswdn  EXFlwdn  EXFswnet EXFlwnet EXFqnet  EXFatemp
(PID.TID 0000.0001)  Fields:    EXFaqh   EXFtaux  EXFtauy
(PID.TID 0000.0001) -----------------------------------------------------
(PID.TID 0000.0001)  DIAGNOSTICS_READPARMS: statistics diags. summary:
(PID.TID 0000.0001) -----------------------------------------------------
(PID.TID 0000.0001) 
(PID.TID 0000.0001) SET_PARMS: done
==> SYSTEM CALL (from INI_MODEL_IO): > mkdir -p tapes <
(PID.TID 0000.0001) Enter INI_VERTICAL_GRID: setInterFDr=    T ; setCenterDr=    F
(PID.TID 0000.0001) tile:   1 ; Read from file grid_cs32.face001.bin
(PID.TID 0000.0001)   => xC yC dxF dyF rA xG yG dxV dyU rAz dxC dyC rAw rAs dxG dyG AngleCS AngleSN
(PID.TID 0000.0001) tile:   2 ; Read from file grid_cs32.face001.bin
(PID.TID 0000.0001)   => xC yC dxF dyF rA xG yG dxV dyU rAz dxC dyC rAw rAs dxG dyG AngleCS AngleSN
(PID.TID 0000.0001) tile:   3 ; Read from file grid_cs32.face001.bin
(PID.TID 0000.0001)   => xC yC dxF dyF rA xG yG dxV dyU rAz dxC dyC rAw rAs dxG dyG AngleCS AngleSN
(PID.TID 0000.0001) tile:   4 ; Read from file grid_cs32.face001.bin
(PID.TID 0000.0001)   => xC yC dxF dyF rA xG yG dxV dyU rAz dxC dyC rAw rAs dxG dyG AngleCS AngleSN
(PID.TID 0000.0001) tile:   5 ; Read from file grid_cs32.face002.bin
(PID.TID 0000.0001)   => xC yC dxF dyF rA xG yG dxV dyU rAz dxC dyC rAw rAs dxG dyG AngleCS AngleSN
(PID.TID 0000.0001) tile:   6 ; Read from file grid_cs32.face002.bin
(PID.TID 0000.0001)   => xC yC dxF dyF rA xG yG dxV dyU rAz dxC dyC rAw rAs dxG dyG AngleCS AngleSN
(PID.TID 0000.0001) tile:   7 ; Read from file grid_cs32.face002.bin
(PID.TID 0000.0001)   => xC yC dxF dyF rA xG yG dxV dyU rAz dxC dyC rAw rAs dxG dyG AngleCS AngleSN
(PID.TID 0000.0001) tile:   8 ; Read from file grid_cs32.face002.bin
(PID.TID 0000.0001)   => xC yC dxF dyF rA xG yG dxV dyU rAz dxC dyC rAw rAs dxG dyG AngleCS AngleSN
(PID.TID 0000.0001) tile:   9 ; Read from file grid_cs32.face003.bin
(PID.TID 0000.0001)   => xC yC dxF dyF rA xG yG dxV dyU rAz dxC dyC rAw rAs dxG dyG AngleCS AngleSN
(PID.TID 0000.0001) tile:  10 ; Read from file grid_cs32.face003.bin
(PID.TID 0000.0001)   => xC yC dxF dyF rA xG yG dxV dyU rAz dxC dyC rAw rAs dxG dyG AngleCS AngleSN
(PID.TID 0000.0001) tile:  11 ; Read from file grid_cs32.face003.bin
(PID.TID 0000.0001)   => xC yC dxF dyF rA xG yG dxV dyU rAz dxC dyC rAw rAs dxG dyG AngleCS AngleSN
(PID.TID 0000.0001) tile:  12 ; Read from file grid_cs32.face003.bin
(PID.TID 0000.0001)   => xC yC dxF dyF rA xG yG dxV dyU rAz dxC dyC rAw rAs dxG dyG AngleCS AngleSN
(PID.TID 0000.0001) tile:  13 ; Read from file grid_cs32.face004.bin
(PID.TID 0000.0001)   => xC yC dxF dyF rA xG yG dxV dyU rAz dxC dyC rAw rAs dxG dyG AngleCS AngleSN
(PID.TID 0000.0001) tile:  14 ; Read from file grid_cs32.face004.bin
(PID.TID 0000.0001)   => xC yC dxF dyF rA xG yG dxV dyU rAz dxC dyC rAw rAs dxG dyG AngleCS AngleSN
(PID.TID 0000.0001) tile:  15 ; Read from file grid_cs32.face004.bin
(PID.TID 0000.0001)   => xC yC dxF dyF rA xG yG dxV dyU rAz dxC dyC rAw rAs dxG dyG AngleCS AngleSN
(PID.TID 0000.0001) tile:  16 ; Read from file grid_cs32.face004.bin
(PID.TID 0000.0001)   => xC yC dxF dyF rA xG yG dxV dyU rAz dxC dyC rAw rAs dxG dyG AngleCS AngleSN
(PID.TID 0000.0001) tile:  17 ; Read from file grid_cs32.face005.bin
(PID.TID 0000.0001)   => xC yC dxF dyF rA xG yG dxV dyU rAz dxC dyC rAw rAs dxG dyG AngleCS AngleSN
(PID.TID 0000.0001) tile:  18 ; Read from file grid_cs32.face005.bin
(PID.TID 0000.0001)   => xC yC dxF dyF rA xG yG dxV dyU rAz dxC dyC rAw rAs dxG dyG AngleCS AngleSN
(PID.TID 0000.0001) tile:  19 ; Read from file grid_cs32.face005.bin
(PID.TID 0000.0001)   => xC yC dxF dyF rA xG yG dxV dyU rAz dxC dyC rAw rAs dxG dyG AngleCS AngleSN
(PID.TID 0000.0001) tile:  20 ; Read from file grid_cs32.face005.bin
(PID.TID 0000.0001)   => xC yC dxF dyF rA xG yG dxV dyU rAz dxC dyC rAw rAs dxG dyG AngleCS AngleSN
(PID.TID 0000.0001) tile:  21 ; Read from file grid_cs32.face006.bin
(PID.TID 0000.0001)   => xC yC dxF dyF rA xG yG dxV dyU rAz dxC dyC rAw rAs dxG dyG AngleCS AngleSN
(PID.TID 0000.0001) tile:  22 ; Read from file grid_cs32.face006.bin
(PID.TID 0000.0001)   => xC yC dxF dyF rA xG yG dxV dyU rAz dxC dyC rAw rAs dxG dyG AngleCS AngleSN
(PID.TID 0000.0001) tile:  23 ; Read from file grid_cs32.face006.bin
(PID.TID 0000.0001)   => xC yC dxF dyF rA xG yG dxV dyU rAz dxC dyC rAw rAs dxG dyG AngleCS AngleSN
(PID.TID 0000.0001) tile:  24 ; Read from file grid_cs32.face006.bin
(PID.TID 0000.0001)   => xC yC dxF dyF rA xG yG dxV dyU rAz dxC dyC rAw rAs dxG dyG AngleCS AngleSN
(PID.TID 0000.0001) %MON XC_max                       =   1.7854351589505E+02
(PID.TID 0000.0001) %MON XC_min                       =  -1.7854351589505E+02
(PID.TID 0000.0001) %MON XC_mean                      =   2.0724163126336E-15
(PID.TID 0000.0001) %MON XC_sd                        =   1.0355545336287E+02
(PID.TID 0000.0001) %MON XG_max                       =   1.8000000000000E+02
(PID.TID 0000.0001) %MON XG_min                       =  -1.7708797161002E+02
(PID.TID 0000.0001) %MON XG_mean                      =   1.8603515625000E+00
(PID.TID 0000.0001) %MON XG_sd                        =   1.0357130300504E+02
(PID.TID 0000.0001) %MON DXC_max                      =   3.2375185836900E+05
(PID.TID 0000.0001) %MON DXC_min                      =   1.1142031410131E+05
(PID.TID 0000.0001) %MON DXC_mean                     =   2.8605689051214E+05
(PID.TID 0000.0001) %MON DXC_sd                       =   3.4042087138252E+04
(PID.TID 0000.0001) %MON DXF_max                      =   3.2369947500827E+05
(PID.TID 0000.0001) %MON DXF_min                      =   1.2020820513318E+05
(PID.TID 0000.0001) %MON DXF_mean                     =   2.8605437324820E+05
(PID.TID 0000.0001) %MON DXF_sd                       =   3.4050524252539E+04
(PID.TID 0000.0001) %MON DXG_max                      =   3.2375195872773E+05
(PID.TID 0000.0001) %MON DXG_min                      =   1.0098378008791E+05
(PID.TID 0000.0001) %MON DXG_mean                     =   2.8603818508931E+05
(PID.TID 0000.0001) %MON DXG_sd                       =   3.4140406908005E+04
(PID.TID 0000.0001) %MON DXV_max                      =   3.2380418162750E+05
(PID.TID 0000.0001) %MON DXV_min                      =   8.0152299824136E+04
(PID.TID 0000.0001) %MON DXV_mean                     =   2.8603970633619E+05
(PID.TID 0000.0001) %MON DXV_sd                       =   3.4145142117723E+04
(PID.TID 0000.0001) %MON YC_max                       =   8.7940663871962E+01
(PID.TID 0000.0001) %MON YC_min                       =  -8.7940663871962E+01
(PID.TID 0000.0001) %MON YC_mean                      =   1.1842378929335E-15
(PID.TID 0000.0001) %MON YC_sd                        =   3.8676242969072E+01
(PID.TID 0000.0001) %MON YG_max                       =   9.0000000000000E+01
(PID.TID 0000.0001) %MON YG_min                       =  -9.0000000000000E+01
(PID.TID 0000.0001) %MON YG_mean                      =   2.9605947323338E-15
(PID.TID 0000.0001) %MON YG_sd                        =   3.8676895860710E+01
(PID.TID 0000.0001) %MON DYC_max                      =   3.2375185836900E+05
(PID.TID 0000.0001) %MON DYC_min                      =   1.1142031410131E+05
(PID.TID 0000.0001) %MON DYC_mean                     =   2.8605689051214E+05
(PID.TID 0000.0001) %MON DYC_sd                       =   3.4042087138252E+04
(PID.TID 0000.0001) %MON DYF_max                      =   3.2369947500827E+05
(PID.TID 0000.0001) %MON DYF_min                      =   1.2020820513318E+05
(PID.TID 0000.0001) %MON DYF_mean                     =   2.8605437324820E+05
(PID.TID 0000.0001) %MON DYF_sd                       =   3.4050524252539E+04
(PID.TID 0000.0001) %MON DYG_max                      =   3.2375195872773E+05
(PID.TID 0000.0001) %MON DYG_min                      =   1.0098378008791E+05
(PID.TID 0000.0001) %MON DYG_mean                     =   2.8603818508931E+05
(PID.TID 0000.0001) %MON DYG_sd                       =   3.4140406908005E+04
(PID.TID 0000.0001) %MON DYU_max                      =   3.2380418162750E+05
(PID.TID 0000.0001) %MON DYU_min                      =   8.0152299824136E+04
(PID.TID 0000.0001) %MON DYU_mean                     =   2.8603970633619E+05
(PID.TID 0000.0001) %MON DYU_sd                       =   3.4145142117723E+04
(PID.TID 0000.0001) %MON RA_max                       =   1.0479260248419E+11
(PID.TID 0000.0001) %MON RA_min                       =   1.4019007022556E+10
(PID.TID 0000.0001) %MON RA_mean                      =   8.2992246709265E+10
(PID.TID 0000.0001) %MON RA_sd                        =   1.7509089299457E+10
(PID.TID 0000.0001) %MON RAW_max                      =   1.0480965274559E+11
(PID.TID 0000.0001) %MON RAW_min                      =   1.2166903467143E+10
(PID.TID 0000.0001) %MON RAW_mean                     =   8.2992246709235E+10
(PID.TID 0000.0001) %MON RAW_sd                       =   1.7481917919656E+10
(PID.TID 0000.0001) %MON RAS_max                      =   1.0480965274559E+11
(PID.TID 0000.0001) %MON RAS_min                      =   1.2166903467143E+10
(PID.TID 0000.0001) %MON RAS_mean                     =   8.2992246709235E+10
(PID.TID 0000.0001) %MON RAS_sd                       =   1.7481917919656E+10
(PID.TID 0000.0001) %MON RAZ_max                      =   1.0484349334619E+11
(PID.TID 0000.0001) %MON RAZ_min                      =   8.8317900612505E+09
(PID.TID 0000.0001) %MON RAZ_mean                     =   8.2992246709235E+10
(PID.TID 0000.0001) %MON RAZ_sd                       =   1.7482297311044E+10
(PID.TID 0000.0001) %MON AngleCS_max                  =   9.9999994756719E-01
(PID.TID 0000.0001) %MON AngleCS_min                  =  -9.9968286884824E-01
(PID.TID 0000.0001) %MON AngleCS_mean                 =   3.3078850405987E-01
(PID.TID 0000.0001) %MON AngleCS_sd                   =   6.2496317138039E-01
(PID.TID 0000.0001) %MON AngleSN_max                  =   9.9968286884824E-01
(PID.TID 0000.0001) %MON AngleSN_min                  =  -9.9999994756719E-01
(PID.TID 0000.0001) %MON AngleSN_mean                 =  -3.3078850405987E-01
(PID.TID 0000.0001) %MON AngleSN_sd                   =   6.2496317138039E-01
(PID.TID 0000.0001) 
(PID.TID 0000.0001) // =======================================================
(PID.TID 0000.0001) // Calendar configuration >>> START <<<
(PID.TID 0000.0001) // =======================================================
(PID.TID 0000.0001) 
(PID.TID 0000.0001) modelstart = /* Start time of the model integration [s] */
(PID.TID 0000.0001)                 0.000000000000000E+00
(PID.TID 0000.0001)     ;
(PID.TID 0000.0001) modelend  = /* End time of the model integration [s] */
(PID.TID 0000.0001)                 3.456000000000000E+05
(PID.TID 0000.0001)     ;
(PID.TID 0000.0001) modelstep = /* Time interval for a model forward step [s] */
(PID.TID 0000.0001)                 4.320000000000000E+04
(PID.TID 0000.0001)     ;
(PID.TID 0000.0001) usingGregorianCalendar= /* Calendar Type: Gregorian Calendar */
(PID.TID 0000.0001)                   T
(PID.TID 0000.0001)     ;
(PID.TID 0000.0001) usingJulianCalendar = /* Calendar Type: Julian Calendar */
(PID.TID 0000.0001)                   F
(PID.TID 0000.0001)     ;
(PID.TID 0000.0001) usingModelCalendar  = /* Calendar Type: Model Calendar */
(PID.TID 0000.0001)                   F
(PID.TID 0000.0001)     ;
(PID.TID 0000.0001) modelstartdate YYYYMMDD = /* Model start date YYYY-MM-DD */
(PID.TID 0000.0001)                19920101
(PID.TID 0000.0001)     ;
(PID.TID 0000.0001)   modelstartdate HHMMSS = /* Model start date HH-MM-SS  */
(PID.TID 0000.0001)                  120000
(PID.TID 0000.0001)     ;
(PID.TID 0000.0001) modelenddate   YYYYMMDD = /* Model end date YYYY-MM-DD */
(PID.TID 0000.0001)                19920105
(PID.TID 0000.0001)     ;
(PID.TID 0000.0001)   modelenddate   HHMMSS = /* Model end date HH-MM-SS  */
(PID.TID 0000.0001)                  120000
(PID.TID 0000.0001)     ;
(PID.TID 0000.0001) intyears = /* Number of calendar years affected by the integration */
(PID.TID 0000.0001)                       1
(PID.TID 0000.0001)     ;
(PID.TID 0000.0001) intmonths= /* Number of calendar months affected by the integration */
(PID.TID 0000.0001)                       1
(PID.TID 0000.0001)     ;
(PID.TID 0000.0001) intdays = /* Number of calendar days affected by the integration */
(PID.TID 0000.0001)                       5
(PID.TID 0000.0001)     ;
(PID.TID 0000.0001) modeliter0 = /* Base timestep number  */
(PID.TID 0000.0001)                       0
(PID.TID 0000.0001)     ;
(PID.TID 0000.0001) modeliterend = /* Final timestep number  */
(PID.TID 0000.0001)                       8
(PID.TID 0000.0001)     ;
(PID.TID 0000.0001) modelintsteps= /* Number of model timesteps  */
(PID.TID 0000.0001)                       8
(PID.TID 0000.0001)     ;
(PID.TID 0000.0001) 
(PID.TID 0000.0001) // =======================================================
(PID.TID 0000.0001) // Calendar configuration  >>> END <<<
(PID.TID 0000.0001) // =======================================================
(PID.TID 0000.0001) 
(PID.TID 0000.0001) GAD_INIT_FIXED: GAD_OlMinSize=  2  0  2
(PID.TID 0000.0001) 
(PID.TID 0000.0001) // ===================================
(PID.TID 0000.0001) // GAD parameters :
(PID.TID 0000.0001) // ===================================
(PID.TID 0000.0001) tempAdvScheme =   /* Temp. Horiz.Advection scheme selector */
(PID.TID 0000.0001)                      30
(PID.TID 0000.0001)     ;
(PID.TID 0000.0001) tempVertAdvScheme =   /* Temp. Vert. Advection scheme selector */
(PID.TID 0000.0001)                       3
(PID.TID 0000.0001)     ;
(PID.TID 0000.0001) tempMultiDimAdvec =   /* use Muti-Dim Advec method for Temp */
(PID.TID 0000.0001)                   T
(PID.TID 0000.0001)     ;
(PID.TID 0000.0001) tempSOM_Advection = /* use 2nd Order Moment Advection for Temp */
(PID.TID 0000.0001)                   F
(PID.TID 0000.0001)     ;
(PID.TID 0000.0001) AdamsBashforthGt = /* apply Adams-Bashforth extrapolation on Gt */
(PID.TID 0000.0001)                   F
(PID.TID 0000.0001)     ;
(PID.TID 0000.0001) AdamsBashforth_T = /* apply Adams-Bashforth extrapolation on Temp */
(PID.TID 0000.0001)                   F
(PID.TID 0000.0001)     ;
(PID.TID 0000.0001) saltAdvScheme =   /* Salt. Horiz.advection scheme selector */
(PID.TID 0000.0001)                      30
(PID.TID 0000.0001)     ;
(PID.TID 0000.0001) saltVertAdvScheme =   /* Salt. Vert. Advection scheme selector */
(PID.TID 0000.0001)                       3
(PID.TID 0000.0001)     ;
(PID.TID 0000.0001) saltMultiDimAdvec =   /* use Muti-Dim Advec method for Salt */
(PID.TID 0000.0001)                   T
(PID.TID 0000.0001)     ;
(PID.TID 0000.0001) saltSOM_Advection = /* use 2nd Order Moment Advection for Salt */
(PID.TID 0000.0001)                   F
(PID.TID 0000.0001)     ;
(PID.TID 0000.0001) AdamsBashforthGs = /* apply Adams-Bashforth extrapolation on Gs */
(PID.TID 0000.0001)                   F
(PID.TID 0000.0001)     ;
(PID.TID 0000.0001) AdamsBashforth_S = /* apply Adams-Bashforth extrapolation on Salt */
(PID.TID 0000.0001)                   F
(PID.TID 0000.0001)     ;
(PID.TID 0000.0001) // ===================================
(PID.TID 0000.0001) 
(PID.TID 0000.0001) // =======================================================
(PID.TID 0000.0001) // External forcing (EXF) configuration >>> START <<<
(PID.TID 0000.0001) // =======================================================
(PID.TID 0000.0001) 
(PID.TID 0000.0001)  EXF general parameters:
(PID.TID 0000.0001) 
(PID.TID 0000.0001) exf_iprec = /* exf file precision */
(PID.TID 0000.0001)                      32
(PID.TID 0000.0001)     ;
(PID.TID 0000.0001) useExfYearlyFields = /* add extension _YEAR to input file names */
(PID.TID 0000.0001)                   F
(PID.TID 0000.0001)     ;
(PID.TID 0000.0001) twoDigitYear = /* use 2-digit year extension */
(PID.TID 0000.0001)                   F
(PID.TID 0000.0001)     ;
(PID.TID 0000.0001) exf_verbose = /* print more messages to STDOUT */
(PID.TID 0000.0001)                   F
(PID.TID 0000.0001)     ;
(PID.TID 0000.0001) useExfCheckRange = /* check for fields range */
(PID.TID 0000.0001)                   F
(PID.TID 0000.0001)     ;
(PID.TID 0000.0001) exf_monFreq = /* EXF monitor frequency [ s ] */
(PID.TID 0000.0001)                 8.640000000000000E+04
(PID.TID 0000.0001)     ;
(PID.TID 0000.0001) repeatPeriod = /* period for cycling forcing dataset [ s ] */
(PID.TID 0000.0001)                 3.153600000000000E+07
(PID.TID 0000.0001)     ;
(PID.TID 0000.0001) climTempFreeze= /* Minimum climatological temperature [deg.C] */
(PID.TID 0000.0001)                -1.900000000000000E+00
(PID.TID 0000.0001)     ;
(PID.TID 0000.0001) windStressMax = /* Maximum absolute windstress [ Pa ] */
(PID.TID 0000.0001)                 2.000000000000000E+00
(PID.TID 0000.0001)     ;
(PID.TID 0000.0001) stressIsOnCgrid = /* set u,v_stress on Arakawa C-grid */
(PID.TID 0000.0001)                   F
(PID.TID 0000.0001)     ;
(PID.TID 0000.0001) cen2kel = /* conversion of deg. Centigrade to Kelvin [K] */
(PID.TID 0000.0001)                 2.731500000000000E+02
(PID.TID 0000.0001)     ;
(PID.TID 0000.0001) gravity_mks= /* gravitational acceleration [m/s^2] */
(PID.TID 0000.0001)                 9.810000000000000E+00
(PID.TID 0000.0001)     ;
(PID.TID 0000.0001) atmrho =  /* mean atmospheric density [kg/m^3] */
(PID.TID 0000.0001)                 1.220000000000000E+00
(PID.TID 0000.0001)     ;
(PID.TID 0000.0001) atmcp =  /* mean atmospheric specific heat [J/kg/K] */
(PID.TID 0000.0001)                 1.005000000000000E+03
(PID.TID 0000.0001)     ;
(PID.TID 0000.0001) flamb =  /* latent heat of evaporation [J/kg] */
(PID.TID 0000.0001)                 2.500000000000000E+06
(PID.TID 0000.0001)     ;
(PID.TID 0000.0001) flami =  /* latent heat of pure-ice melting [J/kg] */
(PID.TID 0000.0001)                 3.340000000000000E+05
(PID.TID 0000.0001)     ;
(PID.TID 0000.0001) cvapor_fac = /* const. for Saturation calculation [?] */
(PID.TID 0000.0001)                 6.403800000000000E+05
(PID.TID 0000.0001)     ;
(PID.TID 0000.0001) cvapor_exp = /* const. for Saturation calculation [?] */
(PID.TID 0000.0001)                 5.107400000000000E+03
(PID.TID 0000.0001)     ;
(PID.TID 0000.0001) cvapor_fac_ice= /* const. for Saturation calculation [?] */
(PID.TID 0000.0001)                 1.163780000000000E+07
(PID.TID 0000.0001)     ;
(PID.TID 0000.0001) cvapor_exp_ice= /* const. for Saturation calculation [?] */
(PID.TID 0000.0001)                 5.897800000000000E+03
(PID.TID 0000.0001)     ;
(PID.TID 0000.0001) humid_fac = /* humidity coef. in virtual temp. [(kg/kg)^-1] */
(PID.TID 0000.0001)                 6.080000000000000E-01
(PID.TID 0000.0001)     ;
(PID.TID 0000.0001) gamma_blk = /* adiabatic lapse rate [?] */
(PID.TID 0000.0001)                 1.000000000000000E-02
(PID.TID 0000.0001)     ;
(PID.TID 0000.0001) saltsat = /* reduction of Qsat over salty water [-] */
(PID.TID 0000.0001)                 9.800000000000000E-01
(PID.TID 0000.0001)     ;
(PID.TID 0000.0001) noNegativeEvap = /* prevent negative Evaporation */
(PID.TID 0000.0001)                   F
(PID.TID 0000.0001)     ;
(PID.TID 0000.0001) sstExtrapol = /* extrapolation coeff from lev. 1 & 2 to surf [-] */
(PID.TID 0000.0001)                 0.000000000000000E+00
(PID.TID 0000.0001)     ;
(PID.TID 0000.0001) cDrag_1 = /* coef used in drag calculation [?] */
(PID.TID 0000.0001)                 2.700000000000000E-03
(PID.TID 0000.0001)     ;
(PID.TID 0000.0001) cDrag_2 = /* coef used in drag calculation [?] */
(PID.TID 0000.0001)                 1.420000000000000E-04
(PID.TID 0000.0001)     ;
(PID.TID 0000.0001) cDrag_3 = /* coef used in drag calculation [?] */
(PID.TID 0000.0001)                 7.640000000000000E-05
(PID.TID 0000.0001)     ;
(PID.TID 0000.0001) cStanton_1 = /* coef used in Stanton number calculation [?] */
(PID.TID 0000.0001)                 3.270000000000000E-02
(PID.TID 0000.0001)     ;
(PID.TID 0000.0001) cStanton_2 = /* coef used in Stanton number calculation [?] */
(PID.TID 0000.0001)                 1.800000000000000E-02
(PID.TID 0000.0001)     ;
(PID.TID 0000.0001) cDalton = /* coef used in Dalton number calculation [?] */
(PID.TID 0000.0001)                 3.460000000000000E-02
(PID.TID 0000.0001)     ;
(PID.TID 0000.0001) exf_scal_BulkCdn= /* Drag coefficient scaling factor [-] */
(PID.TID 0000.0001)                 1.000000000000000E+00
(PID.TID 0000.0001)     ;
(PID.TID 0000.0001) zolmin = /* minimum stability parameter [?] */
(PID.TID 0000.0001)                -1.000000000000000E+02
(PID.TID 0000.0001)     ;
(PID.TID 0000.0001) psim_fac = /* coef used in turbulent fluxes calculation [-] */
(PID.TID 0000.0001)                 5.000000000000000E+00
(PID.TID 0000.0001)     ;
(PID.TID 0000.0001) zref =  /* reference height [ m ] */
(PID.TID 0000.0001)                 1.000000000000000E+01
(PID.TID 0000.0001)     ;
(PID.TID 0000.0001) hu =  /* height of mean wind [ m ] */
(PID.TID 0000.0001)                 1.000000000000000E+01
(PID.TID 0000.0001)     ;
(PID.TID 0000.0001) ht =  /* height of mean temperature [ m ] */
(PID.TID 0000.0001)                 1.000000000000000E+01
(PID.TID 0000.0001)     ;
(PID.TID 0000.0001) hq =  /* height of mean spec.humidity [ m ] */
(PID.TID 0000.0001)                 1.000000000000000E+01
(PID.TID 0000.0001)     ;
(PID.TID 0000.0001) uMin = /* minimum wind speed [m/s] */
(PID.TID 0000.0001)                 5.000000000000000E-01
(PID.TID 0000.0001)     ;
(PID.TID 0000.0001) useStabilityFct_overIce= /* transfert Coeffs over sea-ice depend on stability */
(PID.TID 0000.0001)                   F
(PID.TID 0000.0001)     ;
(PID.TID 0000.0001) exf_iceCd = /* drag coefficient over sea-ice (fixed) [-] */
(PID.TID 0000.0001)                 1.630000000000000E-03
(PID.TID 0000.0001)     ;
(PID.TID 0000.0001) exf_iceCe = /* transfert coeff. over sea-ice, for Evap (fixed) [-] */
(PID.TID 0000.0001)                 1.630000000000000E-03
(PID.TID 0000.0001)     ;
(PID.TID 0000.0001) exf_iceCh = /* transfert coeff. over sea-ice, Sens.Heat.(fixed)[-] */
(PID.TID 0000.0001)                 1.630000000000000E-03
(PID.TID 0000.0001)     ;
(PID.TID 0000.0001) exf_albedo =  /* Sea-water albedo [-] */
(PID.TID 0000.0001)                 6.600000000000000E-02
(PID.TID 0000.0001)     ;
(PID.TID 0000.0001) useExfZenAlbedo = /* Sea-water albedo varies with zenith angle */
(PID.TID 0000.0001)                   F
(PID.TID 0000.0001)     ;
(PID.TID 0000.0001) select_ZenAlbedo = /* Sea-water albedo computation method */
(PID.TID 0000.0001)                       0
(PID.TID 0000.0001)     ;
(PID.TID 0000.0001) useExfZenIncoming = /* compute incoming solar radiation */
(PID.TID 0000.0001)                   F
(PID.TID 0000.0001)     ;
(PID.TID 0000.0001) ocean_emissivity = /* longwave ocean-surface emissivity [-] */
(PID.TID 0000.0001)                 1.000000000000000E+00
(PID.TID 0000.0001)     ;
(PID.TID 0000.0001) ice_emissivity = /* longwave seaice emissivity [-] */
(PID.TID 0000.0001)                 9.500000000000000E-01
(PID.TID 0000.0001)     ;
(PID.TID 0000.0001) snow_emissivity = /* longwave snow  emissivity [-] */
(PID.TID 0000.0001)                 9.500000000000000E-01
(PID.TID 0000.0001)     ;
(PID.TID 0000.0001) 
(PID.TID 0000.0001)  EXF main CPP flags:
(PID.TID 0000.0001) 
(PID.TID 0000.0001) // USE_EXF_INTERPOLATION:              defined
(PID.TID 0000.0001) // ALLOW_ATM_TEMP:                     defined
(PID.TID 0000.0001) // ALLOW_ATM_WIND (useAtmWind):        defined
(PID.TID 0000.0001) // ALLOW_DOWNWARD_RADIATION:           defined
(PID.TID 0000.0001) // ALLOW_BULKFORMULAE:                 defined
(PID.TID 0000.0001) 
(PID.TID 0000.0001)    Zonal wind stress forcing starts at                   0.
(PID.TID 0000.0001)    Zonal wind stress forcing period is               21600.
(PID.TID 0000.0001)    Zonal wind stress forcing is read from file:
(PID.TID 0000.0001)    >>    <<
(PID.TID 0000.0001)    interpolate "ustress" (method= 12 ):
(PID.TID 0000.0001)    lon0= 6.173E+04, nlon=    32, lon_inc= 1.235E+05
(PID.TID 0000.0001)    lat0= 6.173E+04, nlat=    32, lat_inc= 1.235E+05
(PID.TID 0000.0001) 
(PID.TID 0000.0001)    Meridional wind stress forcing starts at              0.
(PID.TID 0000.0001)    Meridional wind stress forcing period is          21600.
(PID.TID 0000.0001)    Meridional wind stress forcing is read from file:
(PID.TID 0000.0001)    >>    <<
(PID.TID 0000.0001)    interpolate "vstress" (method= 22 ):
(PID.TID 0000.0001)    lon0= 6.173E+04, nlon=    32, lon_inc= 1.235E+05
(PID.TID 0000.0001)    lat0= 6.173E+04, nlat=    32, lat_inc= 1.235E+05
(PID.TID 0000.0001)     Interp. U & V comp. together: uvInterp_stress =    F
(PID.TID 0000.0001) 
(PID.TID 0000.0001)    Net shortwave flux forcing starts at                0.
(PID.TID 0000.0001)    Net shortwave flux forcing period is                0.
(PID.TID 0000.0001)    Net shortwave flux forcing is read from file:
(PID.TID 0000.0001)    >>    <<
(PID.TID 0000.0001)    interpolate "swflux" (method=  1 ):
(PID.TID 0000.0001)    lon0= 6.173E+04, nlon=    32, lon_inc= 1.235E+05
(PID.TID 0000.0001)    lat0= 6.173E+04, nlat=    32, lat_inc= 1.235E+05
(PID.TID 0000.0001) 
(PID.TID 0000.0001)    Zonal wind forcing starts at                -1420102800.
(PID.TID 0000.0001)    Zonal wind forcing period is                      21600.
(PID.TID 0000.0001)    Zonal wind forcing is read from file:
(PID.TID 0000.0001)    >>  CORE2_u10m_6hrly_r2_1992  <<
(PID.TID 0000.0001)    interpolate "uwind" (method= 12 ):
(PID.TID 0000.0001)    lon0=   0.00000, nlon=   192, lon_inc= 1.8750000
(PID.TID 0000.0001)    lat0= -88.54200, nlat=    94, inc(min,max)= 1.88880 1.90480
(PID.TID 0000.0001) 
(PID.TID 0000.0001)    Meridional wind forcing starts at           -1420102800.
(PID.TID 0000.0001)    Meridional wind forcing period is                 21600.
(PID.TID 0000.0001)    Meridional wind forcing is read from file:
(PID.TID 0000.0001)    >>  CORE2_v10m_6hrly_r2_1992  <<
(PID.TID 0000.0001)    interpolate "vwind" (method= 22 ):
(PID.TID 0000.0001)    lon0=   0.00000, nlon=   192, lon_inc= 1.8750000
(PID.TID 0000.0001)    lat0= -88.54200, nlat=    94, inc(min,max)= 1.88880 1.90480
(PID.TID 0000.0001)     Interp. U & V comp. together: uvInterp_wind =    T
(PID.TID 0000.0001) 
(PID.TID 0000.0001)    Atmospheric temperature starts at           -1420102800.
(PID.TID 0000.0001)    Atmospheric temperature period is                 21600.
(PID.TID 0000.0001)    Atmospheric temperature is read from file:
(PID.TID 0000.0001)    >>  CORE2_tmp10m_6hrly_r2_1992  <<
(PID.TID 0000.0001)    interpolate "atemp" (method=  1 ):
(PID.TID 0000.0001)    lon0=   0.00000, nlon=   192, lon_inc= 1.8750000
(PID.TID 0000.0001)    lat0= -88.54200, nlat=    94, inc(min,max)= 1.88880 1.90480
(PID.TID 0000.0001) 
(PID.TID 0000.0001)    Atmospheric specific humidity starts at     -1420102800.
(PID.TID 0000.0001)    Atmospheric specific humidity period is           21600.
(PID.TID 0000.0001)    Atmospheric specific humidity is read from file:
(PID.TID 0000.0001)    >>  CORE2_spfh10m_6hrly_r2_1992  <<
(PID.TID 0000.0001)    interpolate "aqh" (method=  1 ):
(PID.TID 0000.0001)    lon0=   0.00000, nlon=   192, lon_inc= 1.8750000
(PID.TID 0000.0001)    lat0= -88.54200, nlat=    94, inc(min,max)= 1.88880 1.90480
(PID.TID 0000.0001) 
(PID.TID 0000.0001)    Net longwave flux forcing starts at                 0.
(PID.TID 0000.0001)    Net longwave flux forcing period is                 0.
(PID.TID 0000.0001)    Net longwave flux forcing is read from file:
(PID.TID 0000.0001)    >>    <<
(PID.TID 0000.0001)    interpolate "lwflux" (method=  1 ):
(PID.TID 0000.0001)    lon0= 6.173E+04, nlon=    32, lon_inc= 1.235E+05
(PID.TID 0000.0001)    lat0= 6.173E+04, nlat=    32, lat_inc= 1.235E+05
(PID.TID 0000.0001) 
(PID.TID 0000.0001)    Precipitation data set starts at            -1418860800.
(PID.TID 0000.0001)    Precipitation data period is                    2628000.
(PID.TID 0000.0001)    Precipitation data is read from file:
(PID.TID 0000.0001)    >>  CORE2_rain_monthly_r2_1992  <<
(PID.TID 0000.0001)    interpolate "precip" (method=  1 ):
(PID.TID 0000.0001)    lon0=   0.00000, nlon=   192, lon_inc= 1.8750000
(PID.TID 0000.0001)    lat0= -88.54200, nlat=    94, inc(min,max)= 1.88880 1.90480
(PID.TID 0000.0001) 
(PID.TID 0000.0001) // EXF_READ_EVAP:                  NOT defined
(PID.TID 0000.0001) 
(PID.TID 0000.0001) // ALLOW_RUNOFF:                       defined
(PID.TID 0000.0001)    Runoff starts at               0.
(PID.TID 0000.0001)    Runoff period is         2628000.
(PID.TID 0000.0001)    Runoff is read from file:
(PID.TID 0000.0001)    >>    <<
(PID.TID 0000.0001)    assume "runoff" on model-grid (no interpolation)
(PID.TID 0000.0001) 
(PID.TID 0000.0001)    Downward shortwave flux forcing starts at      -1420070400.
(PID.TID 0000.0001)    Downward shortwave flux forcing period is            86400.
(PID.TID 0000.0001)    Downward shortwave flux forcing is read from file:
(PID.TID 0000.0001)    >>  CORE2_dsw_daily_r2_1992  <<
(PID.TID 0000.0001)    interpolate "swdown" (method=  1 ):
(PID.TID 0000.0001)    lon0=   0.00000, nlon=   192, lon_inc= 1.8750000
(PID.TID 0000.0001)    lat0= -88.54200, nlat=    94, inc(min,max)= 1.88880 1.90480
(PID.TID 0000.0001) 
(PID.TID 0000.0001)    Downward longwave flux forcing starts at       -1420070400.
(PID.TID 0000.0001)    Downward longwave flux forcing period is             86400.
(PID.TID 0000.0001)    Downward longwave flux forcing is read from file:
(PID.TID 0000.0001)    >>  CORE2_dlw_daily_r2_1992  <<
(PID.TID 0000.0001)    interpolate "lwdown" (method=  1 ):
(PID.TID 0000.0001)    lon0=   0.00000, nlon=   192, lon_inc= 1.8750000
(PID.TID 0000.0001)    lat0= -88.54200, nlat=    94, inc(min,max)= 1.88880 1.90480
(PID.TID 0000.0001) 
(PID.TID 0000.0001)    Atmospheric pressure forcing starts at                0.
(PID.TID 0000.0001)    Atmospheric pressure forcing period is            21600.
(PID.TID 0000.0001)    Atmospheric pressureforcing is read from file:
(PID.TID 0000.0001)    >>    <<
(PID.TID 0000.0001)    interpolate "apressure" (method=  1 ):
(PID.TID 0000.0001)    lon0=   0.00000, nlon=   192, lon_inc= 1.8750000
(PID.TID 0000.0001)    lat0= -88.54200, nlat=    94, inc(min,max)= 1.88880 1.90480
(PID.TID 0000.0001) 
(PID.TID 0000.0001) // =======================================================
(PID.TID 0000.0001) // External forcing (EXF) climatology configuration :
(PID.TID 0000.0001) // =======================================================
(PID.TID 0000.0001) 
(PID.TID 0000.0001) // ALLOW_CLIMSST_RELAXATION:           defined
(PID.TID 0000.0001) // ALLOW_CLIMSSS_RELAXATION:           defined
(PID.TID 0000.0001) 
(PID.TID 0000.0001)    Climatological SST starts at                   0.
(PID.TID 0000.0001)    Climatological SST period is                   0.
(PID.TID 0000.0001)    Climatological SST is read from file:
(PID.TID 0000.0001)    >>    <<
(PID.TID 0000.0001)    interpolate "climsst" (method=  2 ):
(PID.TID 0000.0001)    lon0= 6.173E+04, nlon=    32, lon_inc= 1.235E+05
(PID.TID 0000.0001)    lat0= 6.173E+04, nlat=    32, lat_inc= 1.235E+05
(PID.TID 0000.0001) 
(PID.TID 0000.0001)    Climatological SSS starts at                   0.
(PID.TID 0000.0001)    Climatological SSS period is                   0.
(PID.TID 0000.0001)    Climatological SSS is read from file:
(PID.TID 0000.0001)    >>    <<
(PID.TID 0000.0001)    assume "climsss" on model-grid (no interpolation)
(PID.TID 0000.0001) 
(PID.TID 0000.0001) // =======================================================
(PID.TID 0000.0001) // External forcing (EXF) configuration  >>> END <<<
(PID.TID 0000.0001) // =======================================================
(PID.TID 0000.0001) 
smooth 2D default parameters:   30          0.          0.
smooth 3D default parameters:   30          0.          0.          0.
(PID.TID 0000.0001)  OPEN_COPY_DATA_FILE: opening file data.err
(PID.TID 0000.0001) // =======================================================
(PID.TID 0000.0001) // Parameter file "data.err"
(PID.TID 0000.0001) // =======================================================
(PID.TID 0000.0001) >1.0000
(PID.TID 0000.0001) >0.8317  0.4233
(PID.TID 0000.0001) >0.8643  0.2526
(PID.TID 0000.0001) >0.9149  0.1984
(PID.TID 0000.0001) >0.9624  0.1776
(PID.TID 0000.0001) >1.0082  0.1647
(PID.TID 0000.0001) >1.0377  0.1547
(PID.TID 0000.0001) >1.0513  0.1472
(PID.TID 0000.0001) >1.0652  0.1397
(PID.TID 0000.0001) >1.0666  0.1354
(PID.TID 0000.0001) >1.0682  0.1312
(PID.TID 0000.0001) >1.0695  0.1289
(PID.TID 0000.0001) >1.0702  0.1283
(PID.TID 0000.0001) >1.0669  0.1274
(PID.TID 0000.0001) >1.0419  0.1241
(PID.TID 0000.0001) >1.0094  0.1202
(PID.TID 0000.0001) >0.9605  0.1150
(PID.TID 0000.0001) >0.8961  0.1085
(PID.TID 0000.0001) >0.8314  0.1013
(PID.TID 0000.0001) >0.7588  0.0932
(PID.TID 0000.0001) >0.7055  0.0870
(PID.TID 0000.0001) >0.6744  0.0808
(PID.TID 0000.0001) >0.6355  0.0735
(PID.TID 0000.0001) >0.5794  0.0665
(PID.TID 0000.0001) >0.5250  0.0588
(PID.TID 0000.0001) >0.4699  0.0506
(PID.TID 0000.0001) >0.4113  0.0427
(PID.TID 0000.0001) >0.3484  0.0368
(PID.TID 0000.0001) >0.2855  0.0343
(PID.TID 0000.0001) >0.2380  0.0326
(PID.TID 0000.0001) >0.2035  0.0305
(PID.TID 0000.0001) >0.1687  0.0278
(PID.TID 0000.0001) >0.1459  0.0251
(PID.TID 0000.0001) >0.1298  0.0228
(PID.TID 0000.0001) >0.1132  0.0201
(PID.TID 0000.0001) >0.1006  0.0173
(PID.TID 0000.0001) >0.0866  0.0142
(PID.TID 0000.0001) >0.0851  0.0143
(PID.TID 0000.0001) >0.0808  0.0137
(PID.TID 0000.0001) >0.0736  0.0121
(PID.TID 0000.0001) >0.0651  0.0101
(PID.TID 0000.0001) >0.0603  0.0100
(PID.TID 0000.0001) >0.0541  0.0100
(PID.TID 0000.0001) >0.0522  0.0100
(PID.TID 0000.0001) >0.0509  0.0100
(PID.TID 0000.0001) >0.0450  0.0100
(PID.TID 0000.0001) >0.0416  0.0100
(PID.TID 0000.0001) >0.0387  0.0100
(PID.TID 0000.0001) >0.0317  0.0100
(PID.TID 0000.0001) >0.0352  0.0100
(PID.TID 0000.0001) >0.0100  0.0100
(PID.TID 0000.0001) 
(PID.TID 0000.0001) 
(PID.TID 0000.0001) // =======================================================
(PID.TID 0000.0001) // ECCO cost function configuration  >>> START <<<
(PID.TID 0000.0001) // =======================================================
(PID.TID 0000.0001) 
(PID.TID 0000.0001)   Multipliers for the indivdual cost function contributions:
(PID.TID 0000.0001) 
(PID.TID 0000.0001)   Net heat flux:                 0.100E+01
(PID.TID 0000.0001)   Salt flux:                     0.100E+01
(PID.TID 0000.0001)   Zonal wind stress:             0.100E+01
(PID.TID 0000.0001)   Meridional wind stress:        0.100E+01
(PID.TID 0000.0001)   Mean sea surface height:       0.000E+00
(PID.TID 0000.0001)   Sea surface height anomalies:  0.100E+01
(PID.TID 0000.0001)   Temperature Lev.:              0.100E+01
(PID.TID 0000.0001)   Salinity Lev.:                 0.100E+01
(PID.TID 0000.0001)   Temperature ini.:              0.100E+01
(PID.TID 0000.0001)   Salinity ini.:                 0.100E+01
(PID.TID 0000.0001)   Sea level ini.:                0.000E+00
(PID.TID 0000.0001)   zonal velocity ini.:           0.000E+00
(PID.TID 0000.0001)   merid velocity ini.:           0.000E+00
(PID.TID 0000.0001)   TMI Sea surface temperature:   0.000E+00
(PID.TID 0000.0001)   Sea surface temperature:       0.000E+00
(PID.TID 0000.0001)   Sea surface salinity:         0.000E+00
(PID.TID 0000.0001)   CTD temperature:               0.000E+00
(PID.TID 0000.0001)   CTD salinity:                  0.000E+00
(PID.TID 0000.0001)   CTD clim temperature:          0.000E+00
(PID.TID 0000.0001)   CTD clim salinity:             0.000E+00
(PID.TID 0000.0001)   XBT Temperature:               0.000E+00
(PID.TID 0000.0001)   ARGO Temperature:               0.000E+00
(PID.TID 0000.0001)   ARGO Salt:                      0.000E+00
(PID.TID 0000.0001)   drifter velocities:            0.000E+00
(PID.TID 0000.0001)   drift between last and 1st year: 0.000E+00
(PID.TID 0000.0001)   drift between last and 1st year: 0.000E+00
(PID.TID 0000.0001)   Ageostrophic bdy flow:         0.000E+00
(PID.TID 0000.0001)   OB North:                      0.000E+00
(PID.TID 0000.0001)   OB South:                      0.000E+00
(PID.TID 0000.0001)   OB West:                       0.000E+00
(PID.TID 0000.0001)   OB East:                       0.000E+00
(PID.TID 0000.0001) 
(PID.TID 0000.0001) 
(PID.TID 0000.0001)   Temperature data are read from: some_T_atlas.bin
(PID.TID 0000.0001)   Salinity data are read from:    some_S_atlas.bin
(PID.TID 0000.0001) 
(PID.TID 0000.0001) // =======================================================
(PID.TID 0000.0001) // insitu profiles model sampling >>> START <<<
(PID.TID 0000.0001) // =======================================================
(PID.TID 0000.0001) 
(PID.TID 0000.0001) 
(PID.TID 0000.0001)   profilesDir ./
(PID.TID 0000.0001)   ALLOW_PROFILES_GENERICGRID was compiled
(PID.TID 0000.0001)   profilesDoGenGrid      T
(PID.TID 0000.0001)   profilesDoNcOutput     F
(PID.TID 0000.0001) 
(PID.TID 0000.0001) 
(PID.TID 0000.0001) profiles file   1 is  (empty)
(PID.TID 0000.0001) 
(PID.TID 0000.0001) profiles file   2 is  (empty)
(PID.TID 0000.0001) 
(PID.TID 0000.0001) profiles file   3 is  (empty)
(PID.TID 0000.0001) 
(PID.TID 0000.0001) profiles file   4 is  (empty)
(PID.TID 0000.0001) 
(PID.TID 0000.0001) profiles file   5 is  (empty)
(PID.TID 0000.0001) 
(PID.TID 0000.0001) profiles file   6 is  (empty)
(PID.TID 0000.0001) 
(PID.TID 0000.0001) profiles file   7 is  (empty)
(PID.TID 0000.0001) 
(PID.TID 0000.0001) profiles file   8 is  (empty)
(PID.TID 0000.0001) 
(PID.TID 0000.0001) profiles file   9 is  (empty)
(PID.TID 0000.0001) 
(PID.TID 0000.0001) profiles file  10 is  (empty)
(PID.TID 0000.0001) 
(PID.TID 0000.0001) profiles file  11 is  (empty)
(PID.TID 0000.0001) 
(PID.TID 0000.0001) profiles file  12 is  (empty)
(PID.TID 0000.0001) 
(PID.TID 0000.0001) profiles file  13 is  (empty)
(PID.TID 0000.0001) 
(PID.TID 0000.0001) profiles file  14 is  (empty)
(PID.TID 0000.0001) 
(PID.TID 0000.0001) profiles file  15 is  (empty)
(PID.TID 0000.0001) 
(PID.TID 0000.0001) profiles file  16 is  (empty)
(PID.TID 0000.0001) 
(PID.TID 0000.0001) profiles file  17 is  (empty)
(PID.TID 0000.0001) 
(PID.TID 0000.0001) profiles file  18 is  (empty)
(PID.TID 0000.0001) 
(PID.TID 0000.0001) profiles file  19 is  (empty)
(PID.TID 0000.0001) 
(PID.TID 0000.0001) profiles file  20 is  (empty)
(PID.TID 0000.0001) 
(PID.TID 0000.0001) profiles file   1 is  (empty)
(PID.TID 0000.0001) 
(PID.TID 0000.0001) profiles file   2 is  (empty)
(PID.TID 0000.0001) 
(PID.TID 0000.0001) profiles file   3 is  (empty)
(PID.TID 0000.0001) 
(PID.TID 0000.0001) profiles file   4 is  (empty)
(PID.TID 0000.0001) 
(PID.TID 0000.0001) profiles file   5 is  (empty)
(PID.TID 0000.0001) 
(PID.TID 0000.0001) profiles file   6 is  (empty)
(PID.TID 0000.0001) 
(PID.TID 0000.0001) profiles file   7 is  (empty)
(PID.TID 0000.0001) 
(PID.TID 0000.0001) profiles file   8 is  (empty)
(PID.TID 0000.0001) 
(PID.TID 0000.0001) profiles file   9 is  (empty)
(PID.TID 0000.0001) 
(PID.TID 0000.0001) profiles file  10 is  (empty)
(PID.TID 0000.0001) 
(PID.TID 0000.0001) profiles file  11 is  (empty)
(PID.TID 0000.0001) 
(PID.TID 0000.0001) profiles file  12 is  (empty)
(PID.TID 0000.0001) 
(PID.TID 0000.0001) profiles file  13 is  (empty)
(PID.TID 0000.0001) 
(PID.TID 0000.0001) profiles file  14 is  (empty)
(PID.TID 0000.0001) 
(PID.TID 0000.0001) profiles file  15 is  (empty)
(PID.TID 0000.0001) 
(PID.TID 0000.0001) profiles file  16 is  (empty)
(PID.TID 0000.0001) 
(PID.TID 0000.0001) profiles file  17 is  (empty)
(PID.TID 0000.0001) 
(PID.TID 0000.0001) profiles file  18 is  (empty)
(PID.TID 0000.0001) 
(PID.TID 0000.0001) profiles file  19 is  (empty)
(PID.TID 0000.0001) 
(PID.TID 0000.0001) profiles file  20 is  (empty)
(PID.TID 0000.0001) 
(PID.TID 0000.0001) profiles file   1 is  (empty)
(PID.TID 0000.0001) 
(PID.TID 0000.0001) profiles file   2 is  (empty)
(PID.TID 0000.0001) 
(PID.TID 0000.0001) profiles file   3 is  (empty)
(PID.TID 0000.0001) 
(PID.TID 0000.0001) profiles file   4 is  (empty)
(PID.TID 0000.0001) 
(PID.TID 0000.0001) profiles file   5 is  (empty)
(PID.TID 0000.0001) 
(PID.TID 0000.0001) profiles file   6 is  (empty)
(PID.TID 0000.0001) 
(PID.TID 0000.0001) profiles file   7 is  (empty)
(PID.TID 0000.0001) 
(PID.TID 0000.0001) profiles file   8 is  (empty)
(PID.TID 0000.0001) 
(PID.TID 0000.0001) profiles file   9 is  (empty)
(PID.TID 0000.0001) 
(PID.TID 0000.0001) profiles file  10 is  (empty)
(PID.TID 0000.0001) 
(PID.TID 0000.0001) profiles file  11 is  (empty)
(PID.TID 0000.0001) 
(PID.TID 0000.0001) profiles file  12 is  (empty)
(PID.TID 0000.0001) 
(PID.TID 0000.0001) profiles file  13 is  (empty)
(PID.TID 0000.0001) 
(PID.TID 0000.0001) profiles file  14 is  (empty)
(PID.TID 0000.0001) 
(PID.TID 0000.0001) profiles file  15 is  (empty)
(PID.TID 0000.0001) 
(PID.TID 0000.0001) profiles file  16 is  (empty)
(PID.TID 0000.0001) 
(PID.TID 0000.0001) profiles file  17 is  (empty)
(PID.TID 0000.0001) 
(PID.TID 0000.0001) profiles file  18 is  (empty)
(PID.TID 0000.0001) 
(PID.TID 0000.0001) profiles file  19 is  (empty)
(PID.TID 0000.0001) 
(PID.TID 0000.0001) profiles file  20 is  (empty)
(PID.TID 0000.0001) 
(PID.TID 0000.0001) profiles file   1 is  (empty)
(PID.TID 0000.0001) 
(PID.TID 0000.0001) profiles file   2 is  (empty)
(PID.TID 0000.0001) 
(PID.TID 0000.0001) profiles file   3 is  (empty)
(PID.TID 0000.0001) 
(PID.TID 0000.0001) profiles file   4 is  (empty)
(PID.TID 0000.0001) 
(PID.TID 0000.0001) profiles file   5 is  (empty)
(PID.TID 0000.0001) 
(PID.TID 0000.0001) profiles file   6 is  (empty)
(PID.TID 0000.0001) 
(PID.TID 0000.0001) profiles file   7 is  (empty)
(PID.TID 0000.0001) 
(PID.TID 0000.0001) profiles file   8 is  (empty)
(PID.TID 0000.0001) 
(PID.TID 0000.0001) profiles file   9 is  (empty)
(PID.TID 0000.0001) 
(PID.TID 0000.0001) profiles file  10 is  (empty)
(PID.TID 0000.0001) 
(PID.TID 0000.0001) profiles file  11 is  (empty)
(PID.TID 0000.0001) 
(PID.TID 0000.0001) profiles file  12 is  (empty)
(PID.TID 0000.0001) 
(PID.TID 0000.0001) profiles file  13 is  (empty)
(PID.TID 0000.0001) 
(PID.TID 0000.0001) profiles file  14 is  (empty)
(PID.TID 0000.0001) 
(PID.TID 0000.0001) profiles file  15 is  (empty)
(PID.TID 0000.0001) 
(PID.TID 0000.0001) profiles file  16 is  (empty)
(PID.TID 0000.0001) 
(PID.TID 0000.0001) profiles file  17 is  (empty)
(PID.TID 0000.0001) 
(PID.TID 0000.0001) profiles file  18 is  (empty)
(PID.TID 0000.0001) 
(PID.TID 0000.0001) profiles file  19 is  (empty)
(PID.TID 0000.0001) 
(PID.TID 0000.0001) profiles file  20 is  (empty)
(PID.TID 0000.0001) 
(PID.TID 0000.0001) profiles file   1 is  (empty)
(PID.TID 0000.0001) 
(PID.TID 0000.0001) profiles file   2 is  (empty)
(PID.TID 0000.0001) 
(PID.TID 0000.0001) profiles file   3 is  (empty)
(PID.TID 0000.0001) 
(PID.TID 0000.0001) profiles file   4 is  (empty)
(PID.TID 0000.0001) 
(PID.TID 0000.0001) profiles file   5 is  (empty)
(PID.TID 0000.0001) 
(PID.TID 0000.0001) profiles file   6 is  (empty)
(PID.TID 0000.0001) 
(PID.TID 0000.0001) profiles file   7 is  (empty)
(PID.TID 0000.0001) 
(PID.TID 0000.0001) profiles file   8 is  (empty)
(PID.TID 0000.0001) 
(PID.TID 0000.0001) profiles file   9 is  (empty)
(PID.TID 0000.0001) 
(PID.TID 0000.0001) profiles file  10 is  (empty)
(PID.TID 0000.0001) 
(PID.TID 0000.0001) profiles file  11 is  (empty)
(PID.TID 0000.0001) 
(PID.TID 0000.0001) profiles file  12 is  (empty)
(PID.TID 0000.0001) 
(PID.TID 0000.0001) profiles file  13 is  (empty)
(PID.TID 0000.0001) 
(PID.TID 0000.0001) profiles file  14 is  (empty)
(PID.TID 0000.0001) 
(PID.TID 0000.0001) profiles file  15 is  (empty)
(PID.TID 0000.0001) 
(PID.TID 0000.0001) profiles file  16 is  (empty)
(PID.TID 0000.0001) 
(PID.TID 0000.0001) profiles file  17 is  (empty)
(PID.TID 0000.0001) 
(PID.TID 0000.0001) profiles file  18 is  (empty)
(PID.TID 0000.0001) 
(PID.TID 0000.0001) profiles file  19 is  (empty)
(PID.TID 0000.0001) 
(PID.TID 0000.0001) profiles file  20 is  (empty)
(PID.TID 0000.0001) 
(PID.TID 0000.0001) profiles file   1 is  (empty)
(PID.TID 0000.0001) 
(PID.TID 0000.0001) profiles file   2 is  (empty)
(PID.TID 0000.0001) 
(PID.TID 0000.0001) profiles file   3 is  (empty)
(PID.TID 0000.0001) 
(PID.TID 0000.0001) profiles file   4 is  (empty)
(PID.TID 0000.0001) 
(PID.TID 0000.0001) profiles file   5 is  (empty)
(PID.TID 0000.0001) 
(PID.TID 0000.0001) profiles file   6 is  (empty)
(PID.TID 0000.0001) 
(PID.TID 0000.0001) profiles file   7 is  (empty)
(PID.TID 0000.0001) 
(PID.TID 0000.0001) profiles file   8 is  (empty)
(PID.TID 0000.0001) 
(PID.TID 0000.0001) profiles file   9 is  (empty)
(PID.TID 0000.0001) 
(PID.TID 0000.0001) profiles file  10 is  (empty)
(PID.TID 0000.0001) 
(PID.TID 0000.0001) profiles file  11 is  (empty)
(PID.TID 0000.0001) 
(PID.TID 0000.0001) profiles file  12 is  (empty)
(PID.TID 0000.0001) 
(PID.TID 0000.0001) profiles file  13 is  (empty)
(PID.TID 0000.0001) 
(PID.TID 0000.0001) profiles file  14 is  (empty)
(PID.TID 0000.0001) 
(PID.TID 0000.0001) profiles file  15 is  (empty)
(PID.TID 0000.0001) 
(PID.TID 0000.0001) profiles file  16 is  (empty)
(PID.TID 0000.0001) 
(PID.TID 0000.0001) profiles file  17 is  (empty)
(PID.TID 0000.0001) 
(PID.TID 0000.0001) profiles file  18 is  (empty)
(PID.TID 0000.0001) 
(PID.TID 0000.0001) profiles file  19 is  (empty)
(PID.TID 0000.0001) 
(PID.TID 0000.0001) profiles file  20 is  (empty)
(PID.TID 0000.0001) 
(PID.TID 0000.0001) profiles file   1 is  (empty)
(PID.TID 0000.0001) 
(PID.TID 0000.0001) profiles file   2 is  (empty)
(PID.TID 0000.0001) 
(PID.TID 0000.0001) profiles file   3 is  (empty)
(PID.TID 0000.0001) 
(PID.TID 0000.0001) profiles file   4 is  (empty)
(PID.TID 0000.0001) 
(PID.TID 0000.0001) profiles file   5 is  (empty)
(PID.TID 0000.0001) 
(PID.TID 0000.0001) profiles file   6 is  (empty)
(PID.TID 0000.0001) 
(PID.TID 0000.0001) profiles file   7 is  (empty)
(PID.TID 0000.0001) 
(PID.TID 0000.0001) profiles file   8 is  (empty)
(PID.TID 0000.0001) 
(PID.TID 0000.0001) profiles file   9 is  (empty)
(PID.TID 0000.0001) 
(PID.TID 0000.0001) profiles file  10 is  (empty)
(PID.TID 0000.0001) 
(PID.TID 0000.0001) profiles file  11 is  (empty)
(PID.TID 0000.0001) 
(PID.TID 0000.0001) profiles file  12 is  (empty)
(PID.TID 0000.0001) 
(PID.TID 0000.0001) profiles file  13 is  (empty)
(PID.TID 0000.0001) 
(PID.TID 0000.0001) profiles file  14 is  (empty)
(PID.TID 0000.0001) 
(PID.TID 0000.0001) profiles file  15 is  (empty)
(PID.TID 0000.0001) 
(PID.TID 0000.0001) profiles file  16 is  (empty)
(PID.TID 0000.0001) 
(PID.TID 0000.0001) profiles file  17 is  (empty)
(PID.TID 0000.0001) 
(PID.TID 0000.0001) profiles file  18 is  (empty)
(PID.TID 0000.0001) 
(PID.TID 0000.0001) profiles file  19 is  (empty)
(PID.TID 0000.0001) 
(PID.TID 0000.0001) profiles file  20 is  (empty)
(PID.TID 0000.0001) 
(PID.TID 0000.0001) profiles file   1 is  (empty)
(PID.TID 0000.0001) 
(PID.TID 0000.0001) profiles file   2 is  (empty)
(PID.TID 0000.0001) 
(PID.TID 0000.0001) profiles file   3 is  (empty)
(PID.TID 0000.0001) 
(PID.TID 0000.0001) profiles file   4 is  (empty)
(PID.TID 0000.0001) 
(PID.TID 0000.0001) profiles file   5 is  (empty)
(PID.TID 0000.0001) 
(PID.TID 0000.0001) profiles file   6 is  (empty)
(PID.TID 0000.0001) 
(PID.TID 0000.0001) profiles file   7 is  (empty)
(PID.TID 0000.0001) 
(PID.TID 0000.0001) profiles file   8 is  (empty)
(PID.TID 0000.0001) 
(PID.TID 0000.0001) profiles file   9 is  (empty)
(PID.TID 0000.0001) 
(PID.TID 0000.0001) profiles file  10 is  (empty)
(PID.TID 0000.0001) 
(PID.TID 0000.0001) profiles file  11 is  (empty)
(PID.TID 0000.0001) 
(PID.TID 0000.0001) profiles file  12 is  (empty)
(PID.TID 0000.0001) 
(PID.TID 0000.0001) profiles file  13 is  (empty)
(PID.TID 0000.0001) 
(PID.TID 0000.0001) profiles file  14 is  (empty)
(PID.TID 0000.0001) 
(PID.TID 0000.0001) profiles file  15 is  (empty)
(PID.TID 0000.0001) 
(PID.TID 0000.0001) profiles file  16 is  (empty)
(PID.TID 0000.0001) 
(PID.TID 0000.0001) profiles file  17 is  (empty)
(PID.TID 0000.0001) 
(PID.TID 0000.0001) profiles file  18 is  (empty)
(PID.TID 0000.0001) 
(PID.TID 0000.0001) profiles file  19 is  (empty)
(PID.TID 0000.0001) 
(PID.TID 0000.0001) profiles file  20 is  (empty)
(PID.TID 0000.0001) 
(PID.TID 0000.0001) profiles file   1 is  (empty)
(PID.TID 0000.0001) 
(PID.TID 0000.0001) profiles file   2 is  (empty)
(PID.TID 0000.0001) 
(PID.TID 0000.0001) profiles file   3 is  (empty)
(PID.TID 0000.0001) 
(PID.TID 0000.0001) profiles file   4 is  (empty)
(PID.TID 0000.0001) 
(PID.TID 0000.0001) profiles file   5 is  (empty)
(PID.TID 0000.0001) 
(PID.TID 0000.0001) profiles file   6 is  (empty)
(PID.TID 0000.0001) 
(PID.TID 0000.0001) profiles file   7 is  (empty)
(PID.TID 0000.0001) 
(PID.TID 0000.0001) profiles file   8 is  (empty)
(PID.TID 0000.0001) 
(PID.TID 0000.0001) profiles file   9 is  (empty)
(PID.TID 0000.0001) 
(PID.TID 0000.0001) profiles file  10 is  (empty)
(PID.TID 0000.0001) 
(PID.TID 0000.0001) profiles file  11 is  (empty)
(PID.TID 0000.0001) 
(PID.TID 0000.0001) profiles file  12 is  (empty)
(PID.TID 0000.0001) 
(PID.TID 0000.0001) profiles file  13 is  (empty)
(PID.TID 0000.0001) 
(PID.TID 0000.0001) profiles file  14 is  (empty)
(PID.TID 0000.0001) 
(PID.TID 0000.0001) profiles file  15 is  (empty)
(PID.TID 0000.0001) 
(PID.TID 0000.0001) profiles file  16 is  (empty)
(PID.TID 0000.0001) 
(PID.TID 0000.0001) profiles file  17 is  (empty)
(PID.TID 0000.0001) 
(PID.TID 0000.0001) profiles file  18 is  (empty)
(PID.TID 0000.0001) 
(PID.TID 0000.0001) profiles file  19 is  (empty)
(PID.TID 0000.0001) 
(PID.TID 0000.0001) profiles file  20 is  (empty)
(PID.TID 0000.0001) 
(PID.TID 0000.0001) profiles file   1 is  (empty)
(PID.TID 0000.0001) 
(PID.TID 0000.0001) profiles file   2 is  (empty)
(PID.TID 0000.0001) 
(PID.TID 0000.0001) profiles file   3 is  (empty)
(PID.TID 0000.0001) 
(PID.TID 0000.0001) profiles file   4 is  (empty)
(PID.TID 0000.0001) 
(PID.TID 0000.0001) profiles file   5 is  (empty)
(PID.TID 0000.0001) 
(PID.TID 0000.0001) profiles file   6 is  (empty)
(PID.TID 0000.0001) 
(PID.TID 0000.0001) profiles file   7 is  (empty)
(PID.TID 0000.0001) 
(PID.TID 0000.0001) profiles file   8 is  (empty)
(PID.TID 0000.0001) 
(PID.TID 0000.0001) profiles file   9 is  (empty)
(PID.TID 0000.0001) 
(PID.TID 0000.0001) profiles file  10 is  (empty)
(PID.TID 0000.0001) 
(PID.TID 0000.0001) profiles file  11 is  (empty)
(PID.TID 0000.0001) 
(PID.TID 0000.0001) profiles file  12 is  (empty)
(PID.TID 0000.0001) 
(PID.TID 0000.0001) profiles file  13 is  (empty)
(PID.TID 0000.0001) 
(PID.TID 0000.0001) profiles file  14 is  (empty)
(PID.TID 0000.0001) 
(PID.TID 0000.0001) profiles file  15 is  (empty)
(PID.TID 0000.0001) 
(PID.TID 0000.0001) profiles file  16 is  (empty)
(PID.TID 0000.0001) 
(PID.TID 0000.0001) profiles file  17 is  (empty)
(PID.TID 0000.0001) 
(PID.TID 0000.0001) profiles file  18 is  (empty)
(PID.TID 0000.0001) 
(PID.TID 0000.0001) profiles file  19 is  (empty)
(PID.TID 0000.0001) 
(PID.TID 0000.0001) profiles file  20 is  (empty)
(PID.TID 0000.0001) 
(PID.TID 0000.0001) profiles file   1 is  (empty)
(PID.TID 0000.0001) 
(PID.TID 0000.0001) profiles file   2 is  (empty)
(PID.TID 0000.0001) 
(PID.TID 0000.0001) profiles file   3 is  (empty)
(PID.TID 0000.0001) 
(PID.TID 0000.0001) profiles file   4 is  (empty)
(PID.TID 0000.0001) 
(PID.TID 0000.0001) profiles file   5 is  (empty)
(PID.TID 0000.0001) 
(PID.TID 0000.0001) profiles file   6 is  (empty)
(PID.TID 0000.0001) 
(PID.TID 0000.0001) profiles file   7 is  (empty)
(PID.TID 0000.0001) 
(PID.TID 0000.0001) profiles file   8 is  (empty)
(PID.TID 0000.0001) 
(PID.TID 0000.0001) profiles file   9 is  (empty)
(PID.TID 0000.0001) 
(PID.TID 0000.0001) profiles file  10 is  (empty)
(PID.TID 0000.0001) 
(PID.TID 0000.0001) profiles file  11 is  (empty)
(PID.TID 0000.0001) 
(PID.TID 0000.0001) profiles file  12 is  (empty)
(PID.TID 0000.0001) 
(PID.TID 0000.0001) profiles file  13 is  (empty)
(PID.TID 0000.0001) 
(PID.TID 0000.0001) profiles file  14 is  (empty)
(PID.TID 0000.0001) 
(PID.TID 0000.0001) profiles file  15 is  (empty)
(PID.TID 0000.0001) 
(PID.TID 0000.0001) profiles file  16 is  (empty)
(PID.TID 0000.0001) 
(PID.TID 0000.0001) profiles file  17 is  (empty)
(PID.TID 0000.0001) 
(PID.TID 0000.0001) profiles file  18 is  (empty)
(PID.TID 0000.0001) 
(PID.TID 0000.0001) profiles file  19 is  (empty)
(PID.TID 0000.0001) 
(PID.TID 0000.0001) profiles file  20 is  (empty)
(PID.TID 0000.0001) 
(PID.TID 0000.0001) profiles file   1 is  (empty)
(PID.TID 0000.0001) 
(PID.TID 0000.0001) profiles file   2 is  (empty)
(PID.TID 0000.0001) 
(PID.TID 0000.0001) profiles file   3 is  (empty)
(PID.TID 0000.0001) 
(PID.TID 0000.0001) profiles file   4 is  (empty)
(PID.TID 0000.0001) 
(PID.TID 0000.0001) profiles file   5 is  (empty)
(PID.TID 0000.0001) 
(PID.TID 0000.0001) profiles file   6 is  (empty)
(PID.TID 0000.0001) 
(PID.TID 0000.0001) profiles file   7 is  (empty)
(PID.TID 0000.0001) 
(PID.TID 0000.0001) profiles file   8 is  (empty)
(PID.TID 0000.0001) 
(PID.TID 0000.0001) profiles file   9 is  (empty)
(PID.TID 0000.0001) 
(PID.TID 0000.0001) profiles file  10 is  (empty)
(PID.TID 0000.0001) 
(PID.TID 0000.0001) profiles file  11 is  (empty)
(PID.TID 0000.0001) 
(PID.TID 0000.0001) profiles file  12 is  (empty)
(PID.TID 0000.0001) 
(PID.TID 0000.0001) profiles file  13 is  (empty)
(PID.TID 0000.0001) 
(PID.TID 0000.0001) profiles file  14 is  (empty)
(PID.TID 0000.0001) 
(PID.TID 0000.0001) profiles file  15 is  (empty)
(PID.TID 0000.0001) 
(PID.TID 0000.0001) profiles file  16 is  (empty)
(PID.TID 0000.0001) 
(PID.TID 0000.0001) profiles file  17 is  (empty)
(PID.TID 0000.0001) 
(PID.TID 0000.0001) profiles file  18 is  (empty)
(PID.TID 0000.0001) 
(PID.TID 0000.0001) profiles file  19 is  (empty)
(PID.TID 0000.0001) 
(PID.TID 0000.0001) profiles file  20 is  (empty)
(PID.TID 0000.0001) 
(PID.TID 0000.0001) profiles file   1 is  (empty)
(PID.TID 0000.0001) 
(PID.TID 0000.0001) profiles file   2 is  (empty)
(PID.TID 0000.0001) 
(PID.TID 0000.0001) profiles file   3 is  (empty)
(PID.TID 0000.0001) 
(PID.TID 0000.0001) profiles file   4 is  (empty)
(PID.TID 0000.0001) 
(PID.TID 0000.0001) profiles file   5 is  (empty)
(PID.TID 0000.0001) 
(PID.TID 0000.0001) profiles file   6 is  (empty)
(PID.TID 0000.0001) 
(PID.TID 0000.0001) profiles file   7 is  (empty)
(PID.TID 0000.0001) 
(PID.TID 0000.0001) profiles file   8 is  (empty)
(PID.TID 0000.0001) 
(PID.TID 0000.0001) profiles file   9 is  (empty)
(PID.TID 0000.0001) 
(PID.TID 0000.0001) profiles file  10 is  (empty)
(PID.TID 0000.0001) 
(PID.TID 0000.0001) profiles file  11 is  (empty)
(PID.TID 0000.0001) 
(PID.TID 0000.0001) profiles file  12 is  (empty)
(PID.TID 0000.0001) 
(PID.TID 0000.0001) profiles file  13 is  (empty)
(PID.TID 0000.0001) 
(PID.TID 0000.0001) profiles file  14 is  (empty)
(PID.TID 0000.0001) 
(PID.TID 0000.0001) profiles file  15 is  (empty)
(PID.TID 0000.0001) 
(PID.TID 0000.0001) profiles file  16 is  (empty)
(PID.TID 0000.0001) 
(PID.TID 0000.0001) profiles file  17 is  (empty)
(PID.TID 0000.0001) 
(PID.TID 0000.0001) profiles file  18 is  (empty)
(PID.TID 0000.0001) 
(PID.TID 0000.0001) profiles file  19 is  (empty)
(PID.TID 0000.0001) 
(PID.TID 0000.0001) profiles file  20 is  (empty)
(PID.TID 0000.0001) 
(PID.TID 0000.0001) profiles file   1 is  (empty)
(PID.TID 0000.0001) 
(PID.TID 0000.0001) profiles file   2 is  (empty)
(PID.TID 0000.0001) 
(PID.TID 0000.0001) profiles file   3 is  (empty)
(PID.TID 0000.0001) 
(PID.TID 0000.0001) profiles file   4 is  (empty)
(PID.TID 0000.0001) 
(PID.TID 0000.0001) profiles file   5 is  (empty)
(PID.TID 0000.0001) 
(PID.TID 0000.0001) profiles file   6 is  (empty)
(PID.TID 0000.0001) 
(PID.TID 0000.0001) profiles file   7 is  (empty)
(PID.TID 0000.0001) 
(PID.TID 0000.0001) profiles file   8 is  (empty)
(PID.TID 0000.0001) 
(PID.TID 0000.0001) profiles file   9 is  (empty)
(PID.TID 0000.0001) 
(PID.TID 0000.0001) profiles file  10 is  (empty)
(PID.TID 0000.0001) 
(PID.TID 0000.0001) profiles file  11 is  (empty)
(PID.TID 0000.0001) 
(PID.TID 0000.0001) profiles file  12 is  (empty)
(PID.TID 0000.0001) 
(PID.TID 0000.0001) profiles file  13 is  (empty)
(PID.TID 0000.0001) 
(PID.TID 0000.0001) profiles file  14 is  (empty)
(PID.TID 0000.0001) 
(PID.TID 0000.0001) profiles file  15 is  (empty)
(PID.TID 0000.0001) 
(PID.TID 0000.0001) profiles file  16 is  (empty)
(PID.TID 0000.0001) 
(PID.TID 0000.0001) profiles file  17 is  (empty)
(PID.TID 0000.0001) 
(PID.TID 0000.0001) profiles file  18 is  (empty)
(PID.TID 0000.0001) 
(PID.TID 0000.0001) profiles file  19 is  (empty)
(PID.TID 0000.0001) 
(PID.TID 0000.0001) profiles file  20 is  (empty)
(PID.TID 0000.0001) 
(PID.TID 0000.0001) profiles file   1 is  (empty)
(PID.TID 0000.0001) 
(PID.TID 0000.0001) profiles file   2 is  (empty)
(PID.TID 0000.0001) 
(PID.TID 0000.0001) profiles file   3 is  (empty)
(PID.TID 0000.0001) 
(PID.TID 0000.0001) profiles file   4 is  (empty)
(PID.TID 0000.0001) 
(PID.TID 0000.0001) profiles file   5 is  (empty)
(PID.TID 0000.0001) 
(PID.TID 0000.0001) profiles file   6 is  (empty)
(PID.TID 0000.0001) 
(PID.TID 0000.0001) profiles file   7 is  (empty)
(PID.TID 0000.0001) 
(PID.TID 0000.0001) profiles file   8 is  (empty)
(PID.TID 0000.0001) 
(PID.TID 0000.0001) profiles file   9 is  (empty)
(PID.TID 0000.0001) 
(PID.TID 0000.0001) profiles file  10 is  (empty)
(PID.TID 0000.0001) 
(PID.TID 0000.0001) profiles file  11 is  (empty)
(PID.TID 0000.0001) 
(PID.TID 0000.0001) profiles file  12 is  (empty)
(PID.TID 0000.0001) 
(PID.TID 0000.0001) profiles file  13 is  (empty)
(PID.TID 0000.0001) 
(PID.TID 0000.0001) profiles file  14 is  (empty)
(PID.TID 0000.0001) 
(PID.TID 0000.0001) profiles file  15 is  (empty)
(PID.TID 0000.0001) 
(PID.TID 0000.0001) profiles file  16 is  (empty)
(PID.TID 0000.0001) 
(PID.TID 0000.0001) profiles file  17 is  (empty)
(PID.TID 0000.0001) 
(PID.TID 0000.0001) profiles file  18 is  (empty)
(PID.TID 0000.0001) 
(PID.TID 0000.0001) profiles file  19 is  (empty)
(PID.TID 0000.0001) 
(PID.TID 0000.0001) profiles file  20 is  (empty)
(PID.TID 0000.0001) 
(PID.TID 0000.0001) profiles file   1 is  (empty)
(PID.TID 0000.0001) 
(PID.TID 0000.0001) profiles file   2 is  (empty)
(PID.TID 0000.0001) 
(PID.TID 0000.0001) profiles file   3 is  (empty)
(PID.TID 0000.0001) 
(PID.TID 0000.0001) profiles file   4 is  (empty)
(PID.TID 0000.0001) 
(PID.TID 0000.0001) profiles file   5 is  (empty)
(PID.TID 0000.0001) 
(PID.TID 0000.0001) profiles file   6 is  (empty)
(PID.TID 0000.0001) 
(PID.TID 0000.0001) profiles file   7 is  (empty)
(PID.TID 0000.0001) 
(PID.TID 0000.0001) profiles file   8 is  (empty)
(PID.TID 0000.0001) 
(PID.TID 0000.0001) profiles file   9 is  (empty)
(PID.TID 0000.0001) 
(PID.TID 0000.0001) profiles file  10 is  (empty)
(PID.TID 0000.0001) 
(PID.TID 0000.0001) profiles file  11 is  (empty)
(PID.TID 0000.0001) 
(PID.TID 0000.0001) profiles file  12 is  (empty)
(PID.TID 0000.0001) 
(PID.TID 0000.0001) profiles file  13 is  (empty)
(PID.TID 0000.0001) 
(PID.TID 0000.0001) profiles file  14 is  (empty)
(PID.TID 0000.0001) 
(PID.TID 0000.0001) profiles file  15 is  (empty)
(PID.TID 0000.0001) 
(PID.TID 0000.0001) profiles file  16 is  (empty)
(PID.TID 0000.0001) 
(PID.TID 0000.0001) profiles file  17 is  (empty)
(PID.TID 0000.0001) 
(PID.TID 0000.0001) profiles file  18 is  (empty)
(PID.TID 0000.0001) 
(PID.TID 0000.0001) profiles file  19 is  (empty)
(PID.TID 0000.0001) 
(PID.TID 0000.0001) profiles file  20 is  (empty)
(PID.TID 0000.0001) 
(PID.TID 0000.0001) profiles file   1 is  (empty)
(PID.TID 0000.0001) 
(PID.TID 0000.0001) profiles file   2 is  (empty)
(PID.TID 0000.0001) 
(PID.TID 0000.0001) profiles file   3 is  (empty)
(PID.TID 0000.0001) 
(PID.TID 0000.0001) profiles file   4 is  (empty)
(PID.TID 0000.0001) 
(PID.TID 0000.0001) profiles file   5 is  (empty)
(PID.TID 0000.0001) 
(PID.TID 0000.0001) profiles file   6 is  (empty)
(PID.TID 0000.0001) 
(PID.TID 0000.0001) profiles file   7 is  (empty)
(PID.TID 0000.0001) 
(PID.TID 0000.0001) profiles file   8 is  (empty)
(PID.TID 0000.0001) 
(PID.TID 0000.0001) profiles file   9 is  (empty)
(PID.TID 0000.0001) 
(PID.TID 0000.0001) profiles file  10 is  (empty)
(PID.TID 0000.0001) 
(PID.TID 0000.0001) profiles file  11 is  (empty)
(PID.TID 0000.0001) 
(PID.TID 0000.0001) profiles file  12 is  (empty)
(PID.TID 0000.0001) 
(PID.TID 0000.0001) profiles file  13 is  (empty)
(PID.TID 0000.0001) 
(PID.TID 0000.0001) profiles file  14 is  (empty)
(PID.TID 0000.0001) 
(PID.TID 0000.0001) profiles file  15 is  (empty)
(PID.TID 0000.0001) 
(PID.TID 0000.0001) profiles file  16 is  (empty)
(PID.TID 0000.0001) 
(PID.TID 0000.0001) profiles file  17 is  (empty)
(PID.TID 0000.0001) 
(PID.TID 0000.0001) profiles file  18 is  (empty)
(PID.TID 0000.0001) 
(PID.TID 0000.0001) profiles file  19 is  (empty)
(PID.TID 0000.0001) 
(PID.TID 0000.0001) profiles file  20 is  (empty)
(PID.TID 0000.0001) 
(PID.TID 0000.0001) profiles file   1 is  (empty)
(PID.TID 0000.0001) 
(PID.TID 0000.0001) profiles file   2 is  (empty)
(PID.TID 0000.0001) 
(PID.TID 0000.0001) profiles file   3 is  (empty)
(PID.TID 0000.0001) 
(PID.TID 0000.0001) profiles file   4 is  (empty)
(PID.TID 0000.0001) 
(PID.TID 0000.0001) profiles file   5 is  (empty)
(PID.TID 0000.0001) 
(PID.TID 0000.0001) profiles file   6 is  (empty)
(PID.TID 0000.0001) 
(PID.TID 0000.0001) profiles file   7 is  (empty)
(PID.TID 0000.0001) 
(PID.TID 0000.0001) profiles file   8 is  (empty)
(PID.TID 0000.0001) 
(PID.TID 0000.0001) profiles file   9 is  (empty)
(PID.TID 0000.0001) 
(PID.TID 0000.0001) profiles file  10 is  (empty)
(PID.TID 0000.0001) 
(PID.TID 0000.0001) profiles file  11 is  (empty)
(PID.TID 0000.0001) 
(PID.TID 0000.0001) profiles file  12 is  (empty)
(PID.TID 0000.0001) 
(PID.TID 0000.0001) profiles file  13 is  (empty)
(PID.TID 0000.0001) 
(PID.TID 0000.0001) profiles file  14 is  (empty)
(PID.TID 0000.0001) 
(PID.TID 0000.0001) profiles file  15 is  (empty)
(PID.TID 0000.0001) 
(PID.TID 0000.0001) profiles file  16 is  (empty)
(PID.TID 0000.0001) 
(PID.TID 0000.0001) profiles file  17 is  (empty)
(PID.TID 0000.0001) 
(PID.TID 0000.0001) profiles file  18 is  (empty)
(PID.TID 0000.0001) 
(PID.TID 0000.0001) profiles file  19 is  (empty)
(PID.TID 0000.0001) 
(PID.TID 0000.0001) profiles file  20 is  (empty)
(PID.TID 0000.0001) 
(PID.TID 0000.0001) profiles file   1 is  (empty)
(PID.TID 0000.0001) 
(PID.TID 0000.0001) profiles file   2 is  (empty)
(PID.TID 0000.0001) 
(PID.TID 0000.0001) profiles file   3 is  (empty)
(PID.TID 0000.0001) 
(PID.TID 0000.0001) profiles file   4 is  (empty)
(PID.TID 0000.0001) 
(PID.TID 0000.0001) profiles file   5 is  (empty)
(PID.TID 0000.0001) 
(PID.TID 0000.0001) profiles file   6 is  (empty)
(PID.TID 0000.0001) 
(PID.TID 0000.0001) profiles file   7 is  (empty)
(PID.TID 0000.0001) 
(PID.TID 0000.0001) profiles file   8 is  (empty)
(PID.TID 0000.0001) 
(PID.TID 0000.0001) profiles file   9 is  (empty)
(PID.TID 0000.0001) 
(PID.TID 0000.0001) profiles file  10 is  (empty)
(PID.TID 0000.0001) 
(PID.TID 0000.0001) profiles file  11 is  (empty)
(PID.TID 0000.0001) 
(PID.TID 0000.0001) profiles file  12 is  (empty)
(PID.TID 0000.0001) 
(PID.TID 0000.0001) profiles file  13 is  (empty)
(PID.TID 0000.0001) 
(PID.TID 0000.0001) profiles file  14 is  (empty)
(PID.TID 0000.0001) 
(PID.TID 0000.0001) profiles file  15 is  (empty)
(PID.TID 0000.0001) 
(PID.TID 0000.0001) profiles file  16 is  (empty)
(PID.TID 0000.0001) 
(PID.TID 0000.0001) profiles file  17 is  (empty)
(PID.TID 0000.0001) 
(PID.TID 0000.0001) profiles file  18 is  (empty)
(PID.TID 0000.0001) 
(PID.TID 0000.0001) profiles file  19 is  (empty)
(PID.TID 0000.0001) 
(PID.TID 0000.0001) profiles file  20 is  (empty)
(PID.TID 0000.0001) 
(PID.TID 0000.0001) profiles file   1 is  (empty)
(PID.TID 0000.0001) 
(PID.TID 0000.0001) profiles file   2 is  (empty)
(PID.TID 0000.0001) 
(PID.TID 0000.0001) profiles file   3 is  (empty)
(PID.TID 0000.0001) 
(PID.TID 0000.0001) profiles file   4 is  (empty)
(PID.TID 0000.0001) 
(PID.TID 0000.0001) profiles file   5 is  (empty)
(PID.TID 0000.0001) 
(PID.TID 0000.0001) profiles file   6 is  (empty)
(PID.TID 0000.0001) 
(PID.TID 0000.0001) profiles file   7 is  (empty)
(PID.TID 0000.0001) 
(PID.TID 0000.0001) profiles file   8 is  (empty)
(PID.TID 0000.0001) 
(PID.TID 0000.0001) profiles file   9 is  (empty)
(PID.TID 0000.0001) 
(PID.TID 0000.0001) profiles file  10 is  (empty)
(PID.TID 0000.0001) 
(PID.TID 0000.0001) profiles file  11 is  (empty)
(PID.TID 0000.0001) 
(PID.TID 0000.0001) profiles file  12 is  (empty)
(PID.TID 0000.0001) 
(PID.TID 0000.0001) profiles file  13 is  (empty)
(PID.TID 0000.0001) 
(PID.TID 0000.0001) profiles file  14 is  (empty)
(PID.TID 0000.0001) 
(PID.TID 0000.0001) profiles file  15 is  (empty)
(PID.TID 0000.0001) 
(PID.TID 0000.0001) profiles file  16 is  (empty)
(PID.TID 0000.0001) 
(PID.TID 0000.0001) profiles file  17 is  (empty)
(PID.TID 0000.0001) 
(PID.TID 0000.0001) profiles file  18 is  (empty)
(PID.TID 0000.0001) 
(PID.TID 0000.0001) profiles file  19 is  (empty)
(PID.TID 0000.0001) 
(PID.TID 0000.0001) profiles file  20 is  (empty)
(PID.TID 0000.0001) 
(PID.TID 0000.0001) profiles file   1 is  (empty)
(PID.TID 0000.0001) 
(PID.TID 0000.0001) profiles file   2 is  (empty)
(PID.TID 0000.0001) 
(PID.TID 0000.0001) profiles file   3 is  (empty)
(PID.TID 0000.0001) 
(PID.TID 0000.0001) profiles file   4 is  (empty)
(PID.TID 0000.0001) 
(PID.TID 0000.0001) profiles file   5 is  (empty)
(PID.TID 0000.0001) 
(PID.TID 0000.0001) profiles file   6 is  (empty)
(PID.TID 0000.0001) 
(PID.TID 0000.0001) profiles file   7 is  (empty)
(PID.TID 0000.0001) 
(PID.TID 0000.0001) profiles file   8 is  (empty)
(PID.TID 0000.0001) 
(PID.TID 0000.0001) profiles file   9 is  (empty)
(PID.TID 0000.0001) 
(PID.TID 0000.0001) profiles file  10 is  (empty)
(PID.TID 0000.0001) 
(PID.TID 0000.0001) profiles file  11 is  (empty)
(PID.TID 0000.0001) 
(PID.TID 0000.0001) profiles file  12 is  (empty)
(PID.TID 0000.0001) 
(PID.TID 0000.0001) profiles file  13 is  (empty)
(PID.TID 0000.0001) 
(PID.TID 0000.0001) profiles file  14 is  (empty)
(PID.TID 0000.0001) 
(PID.TID 0000.0001) profiles file  15 is  (empty)
(PID.TID 0000.0001) 
(PID.TID 0000.0001) profiles file  16 is  (empty)
(PID.TID 0000.0001) 
(PID.TID 0000.0001) profiles file  17 is  (empty)
(PID.TID 0000.0001) 
(PID.TID 0000.0001) profiles file  18 is  (empty)
(PID.TID 0000.0001) 
(PID.TID 0000.0001) profiles file  19 is  (empty)
(PID.TID 0000.0001) 
(PID.TID 0000.0001) profiles file  20 is  (empty)
(PID.TID 0000.0001) 
(PID.TID 0000.0001) profiles file   1 is  (empty)
(PID.TID 0000.0001) 
(PID.TID 0000.0001) profiles file   2 is  (empty)
(PID.TID 0000.0001) 
(PID.TID 0000.0001) profiles file   3 is  (empty)
(PID.TID 0000.0001) 
(PID.TID 0000.0001) profiles file   4 is  (empty)
(PID.TID 0000.0001) 
(PID.TID 0000.0001) profiles file   5 is  (empty)
(PID.TID 0000.0001) 
(PID.TID 0000.0001) profiles file   6 is  (empty)
(PID.TID 0000.0001) 
(PID.TID 0000.0001) profiles file   7 is  (empty)
(PID.TID 0000.0001) 
(PID.TID 0000.0001) profiles file   8 is  (empty)
(PID.TID 0000.0001) 
(PID.TID 0000.0001) profiles file   9 is  (empty)
(PID.TID 0000.0001) 
(PID.TID 0000.0001) profiles file  10 is  (empty)
(PID.TID 0000.0001) 
(PID.TID 0000.0001) profiles file  11 is  (empty)
(PID.TID 0000.0001) 
(PID.TID 0000.0001) profiles file  12 is  (empty)
(PID.TID 0000.0001) 
(PID.TID 0000.0001) profiles file  13 is  (empty)
(PID.TID 0000.0001) 
(PID.TID 0000.0001) profiles file  14 is  (empty)
(PID.TID 0000.0001) 
(PID.TID 0000.0001) profiles file  15 is  (empty)
(PID.TID 0000.0001) 
(PID.TID 0000.0001) profiles file  16 is  (empty)
(PID.TID 0000.0001) 
(PID.TID 0000.0001) profiles file  17 is  (empty)
(PID.TID 0000.0001) 
(PID.TID 0000.0001) profiles file  18 is  (empty)
(PID.TID 0000.0001) 
(PID.TID 0000.0001) profiles file  19 is  (empty)
(PID.TID 0000.0001) 
(PID.TID 0000.0001) profiles file  20 is  (empty)
(PID.TID 0000.0001) 
(PID.TID 0000.0001) profiles file   1 is  (empty)
(PID.TID 0000.0001) 
(PID.TID 0000.0001) profiles file   2 is  (empty)
(PID.TID 0000.0001) 
(PID.TID 0000.0001) profiles file   3 is  (empty)
(PID.TID 0000.0001) 
(PID.TID 0000.0001) profiles file   4 is  (empty)
(PID.TID 0000.0001) 
(PID.TID 0000.0001) profiles file   5 is  (empty)
(PID.TID 0000.0001) 
(PID.TID 0000.0001) profiles file   6 is  (empty)
(PID.TID 0000.0001) 
(PID.TID 0000.0001) profiles file   7 is  (empty)
(PID.TID 0000.0001) 
(PID.TID 0000.0001) profiles file   8 is  (empty)
(PID.TID 0000.0001) 
(PID.TID 0000.0001) profiles file   9 is  (empty)
(PID.TID 0000.0001) 
(PID.TID 0000.0001) profiles file  10 is  (empty)
(PID.TID 0000.0001) 
(PID.TID 0000.0001) profiles file  11 is  (empty)
(PID.TID 0000.0001) 
(PID.TID 0000.0001) profiles file  12 is  (empty)
(PID.TID 0000.0001) 
(PID.TID 0000.0001) profiles file  13 is  (empty)
(PID.TID 0000.0001) 
(PID.TID 0000.0001) profiles file  14 is  (empty)
(PID.TID 0000.0001) 
(PID.TID 0000.0001) profiles file  15 is  (empty)
(PID.TID 0000.0001) 
(PID.TID 0000.0001) profiles file  16 is  (empty)
(PID.TID 0000.0001) 
(PID.TID 0000.0001) profiles file  17 is  (empty)
(PID.TID 0000.0001) 
(PID.TID 0000.0001) profiles file  18 is  (empty)
(PID.TID 0000.0001) 
(PID.TID 0000.0001) profiles file  19 is  (empty)
(PID.TID 0000.0001) 
(PID.TID 0000.0001) profiles file  20 is  (empty)
(PID.TID 0000.0001) 
(PID.TID 0000.0001) profiles file   1 is  (empty)
(PID.TID 0000.0001) 
(PID.TID 0000.0001) profiles file   2 is  (empty)
(PID.TID 0000.0001) 
(PID.TID 0000.0001) profiles file   3 is  (empty)
(PID.TID 0000.0001) 
(PID.TID 0000.0001) profiles file   4 is  (empty)
(PID.TID 0000.0001) 
(PID.TID 0000.0001) profiles file   5 is  (empty)
(PID.TID 0000.0001) 
(PID.TID 0000.0001) profiles file   6 is  (empty)
(PID.TID 0000.0001) 
(PID.TID 0000.0001) profiles file   7 is  (empty)
(PID.TID 0000.0001) 
(PID.TID 0000.0001) profiles file   8 is  (empty)
(PID.TID 0000.0001) 
(PID.TID 0000.0001) profiles file   9 is  (empty)
(PID.TID 0000.0001) 
(PID.TID 0000.0001) profiles file  10 is  (empty)
(PID.TID 0000.0001) 
(PID.TID 0000.0001) profiles file  11 is  (empty)
(PID.TID 0000.0001) 
(PID.TID 0000.0001) profiles file  12 is  (empty)
(PID.TID 0000.0001) 
(PID.TID 0000.0001) profiles file  13 is  (empty)
(PID.TID 0000.0001) 
(PID.TID 0000.0001) profiles file  14 is  (empty)
(PID.TID 0000.0001) 
(PID.TID 0000.0001) profiles file  15 is  (empty)
(PID.TID 0000.0001) 
(PID.TID 0000.0001) profiles file  16 is  (empty)
(PID.TID 0000.0001) 
(PID.TID 0000.0001) profiles file  17 is  (empty)
(PID.TID 0000.0001) 
(PID.TID 0000.0001) profiles file  18 is  (empty)
(PID.TID 0000.0001) 
(PID.TID 0000.0001) profiles file  19 is  (empty)
(PID.TID 0000.0001) 
(PID.TID 0000.0001) profiles file  20 is  (empty)
(PID.TID 0000.0001) 
(PID.TID 0000.0001) // =======================================================
(PID.TID 0000.0001) // insitu profiles model sampling >>> END <<<
(PID.TID 0000.0001) // =======================================================
(PID.TID 0000.0001) 
(PID.TID 0000.0001) ctrl-wet 1:    nvarlength =       990810
(PID.TID 0000.0001) ctrl-wet 2: surface wet C =          237
(PID.TID 0000.0001) ctrl-wet 3: surface wet W =          228
(PID.TID 0000.0001) ctrl-wet 4: surface wet S =          233
(PID.TID 0000.0001) ctrl-wet 4a:surface wet V =            0
(PID.TID 0000.0001) ctrl-wet 5: 3D wet points =        10699
(PID.TID 0000.0001) ctrl-wet 6: no recs for i =     1           1
(PID.TID 0000.0001) ctrl-wet 6: no recs for i =     2           1
(PID.TID 0000.0001) ctrl-wet 6: no recs for i =     3           0
(PID.TID 0000.0001) ctrl-wet 6: no recs for i =     4           0
(PID.TID 0000.0001) ctrl-wet 6: no recs for i =     5           0
(PID.TID 0000.0001) ctrl-wet 6: no recs for i =     6           0
(PID.TID 0000.0001) ctrl-wet 6: no recs for i =     7           2
(PID.TID 0000.0001) ctrl-wet 6: no recs for i =     8           2
(PID.TID 0000.0001) ctrl-wet 6: no recs for i =     9           2
(PID.TID 0000.0001) ctrl-wet 6: no recs for i =    10           2
(PID.TID 0000.0001) ctrl-wet 6: no recs for i =    11           0
(PID.TID 0000.0001) ctrl-wet 6: no recs for i =    12           0
(PID.TID 0000.0001) ctrl-wet 6: no recs for i =    13           0
(PID.TID 0000.0001) ctrl-wet 6: no recs for i =    14           0
(PID.TID 0000.0001) ctrl-wet 6: no recs for i =    15           1
(PID.TID 0000.0001) ctrl-wet 6: no recs for i =    16           1
(PID.TID 0000.0001) ctrl-wet 6: no recs for i =    17           0
(PID.TID 0000.0001) ctrl-wet 6: no recs for i =    18           0
(PID.TID 0000.0001) ctrl-wet 6: no recs for i =    19           0
(PID.TID 0000.0001) ctrl-wet 6: no recs for i =    20           0
(PID.TID 0000.0001) ctrl-wet 6: no recs for i =    21           0
(PID.TID 0000.0001) ctrl-wet 6: no recs for i =    22           0
(PID.TID 0000.0001) ctrl-wet 6: no recs for i =    23           0
(PID.TID 0000.0001) ctrl-wet 6: no recs for i =    24           0
(PID.TID 0000.0001) ctrl-wet 6: no recs for i =    25           0
(PID.TID 0000.0001) ctrl-wet 6: no recs for i =    26           0
(PID.TID 0000.0001) ctrl-wet 6: no recs for i =    27           0
(PID.TID 0000.0001) ctrl-wet 6: no recs for i =    28           0
(PID.TID 0000.0001) ctrl-wet 6: no recs for i =    29           0
(PID.TID 0000.0001) ctrl-wet 6: no recs for i =    30           0
(PID.TID 0000.0001) ctrl-wet 6: no recs for i =    31           0
(PID.TID 0000.0001) ctrl-wet 6: no recs for i =    32           2
(PID.TID 0000.0001) ctrl-wet 6: no recs for i =    33           0
(PID.TID 0000.0001) ctrl-wet 6: no recs for i =    34           2
(PID.TID 0000.0001) ctrl-wet 6: no recs for i =    35           0
(PID.TID 0000.0001) ctrl-wet 6: no recs for i =    36           2
(PID.TID 0000.0001) ctrl-wet 6: no recs for i =    37           0
(PID.TID 0000.0001) ctrl-wet 6: no recs for i =    38           0
(PID.TID 0000.0001) ctrl-wet 6: no recs for i =    39           0
(PID.TID 0000.0001) ctrl-wet 6: no recs for i =    40           0
(PID.TID 0000.0001) ctrl-wet 6: no recs for i =    41           0
(PID.TID 0000.0001) ctrl-wet 6: no recs for i =    42           0
(PID.TID 0000.0001) ctrl-wet 6: no recs for i =    43           0
(PID.TID 0000.0001) ctrl-wet 6: no recs for i =    44           1
(PID.TID 0000.0001) ctrl-wet 6: no recs for i =    45           0
(PID.TID 0000.0001) ctrl-wet 6: no recs for i =    46           0
(PID.TID 0000.0001) ctrl-wet 6: no recs for i =    47           0
(PID.TID 0000.0001) ctrl-wet 6: no recs for i =    48           0
(PID.TID 0000.0001) ctrl-wet 6: no recs for i =    49           0
(PID.TID 0000.0001) ctrl-wet 6: no recs for i =    50           0
(PID.TID 0000.0001) ctrl-wet 6: no recs for i =    51           0
(PID.TID 0000.0001) ctrl-wet 6: no recs for i =    52           0
(PID.TID 0000.0001) ctrl-wet 6: no recs for i =    53           0
(PID.TID 0000.0001) ctrl-wet 6: no recs for i =    54           0
(PID.TID 0000.0001) ctrl-wet 6: no recs for i =    55           0
(PID.TID 0000.0001) ctrl-wet 6: no recs for i =    56           0
(PID.TID 0000.0001) ctrl-wet 6: no recs for i =    57           0
(PID.TID 0000.0001) ctrl-wet 6: no recs for i =    58           0
(PID.TID 0000.0001) ctrl-wet 6: no recs for i =    59           0
(PID.TID 0000.0001) ctrl-wet 6: no recs for i =    60           0
(PID.TID 0000.0001) ctrl-wet 7: flux         21398
(PID.TID 0000.0001) ctrl-wet 8: atmos        23268
(PID.TID 0000.0001) ctrl-wet -------------------------------------------------
(PID.TID 0000.0001) ctrl-wet 13: global nvarlength for Nr =   50      990810
(PID.TID 0000.0001) ctrl-wet -------------------------------------------------
(PID.TID 0000.0001) ctrl-wet 14: global nWet C/S/W/V k=    1        4420        4232        4206           0
(PID.TID 0000.0001) ctrl-wet 14: global nWet C/S/W/V k=    2        4420        4232        4206           0
(PID.TID 0000.0001) ctrl-wet 14: global nWet C/S/W/V k=    3        4420        4232        4206           0
(PID.TID 0000.0001) ctrl-wet 14: global nWet C/S/W/V k=    4        4420        4232        4206           0
(PID.TID 0000.0001) ctrl-wet 14: global nWet C/S/W/V k=    5        4420        4232        4206           0
(PID.TID 0000.0001) ctrl-wet 14: global nWet C/S/W/V k=    6        4313        4125        4106           0
(PID.TID 0000.0001) ctrl-wet 14: global nWet C/S/W/V k=    7        4297        4110        4095           0
(PID.TID 0000.0001) ctrl-wet 14: global nWet C/S/W/V k=    8        4285        4097        4081           0
(PID.TID 0000.0001) ctrl-wet 14: global nWet C/S/W/V k=    9        4276        4090        4073           0
(PID.TID 0000.0001) ctrl-wet 14: global nWet C/S/W/V k=   10        4258        4074        4058           0
(PID.TID 0000.0001) ctrl-wet 14: global nWet C/S/W/V k=   11        4248        4065        4049           0
(PID.TID 0000.0001) ctrl-wet 14: global nWet C/S/W/V k=   12        4235        4051        4035           0
(PID.TID 0000.0001) ctrl-wet 14: global nWet C/S/W/V k=   13        4224        4039        4026           0
(PID.TID 0000.0001) ctrl-wet 14: global nWet C/S/W/V k=   14        4205        4026        4008           0
(PID.TID 0000.0001) ctrl-wet 14: global nWet C/S/W/V k=   15        4194        4015        3996           0
(PID.TID 0000.0001) ctrl-wet 14: global nWet C/S/W/V k=   16        4185        4005        3987           0
(PID.TID 0000.0001) ctrl-wet 14: global nWet C/S/W/V k=   17        4172        3993        3972           0
(PID.TID 0000.0001) ctrl-wet 14: global nWet C/S/W/V k=   18        4151        3972        3951           0
(PID.TID 0000.0001) ctrl-wet 14: global nWet C/S/W/V k=   19        4134        3954        3931           0
(PID.TID 0000.0001) ctrl-wet 14: global nWet C/S/W/V k=   20        4122        3942        3921           0
(PID.TID 0000.0001) ctrl-wet 14: global nWet C/S/W/V k=   21        4109        3929        3906           0
(PID.TID 0000.0001) ctrl-wet 14: global nWet C/S/W/V k=   22        4096        3916        3891           0
(PID.TID 0000.0001) ctrl-wet 14: global nWet C/S/W/V k=   23        4081        3899        3878           0
(PID.TID 0000.0001) ctrl-wet 14: global nWet C/S/W/V k=   24        4046        3863        3845           0
(PID.TID 0000.0001) ctrl-wet 14: global nWet C/S/W/V k=   25        4028        3847        3829           0
(PID.TID 0000.0001) ctrl-wet 14: global nWet C/S/W/V k=   26        4013        3831        3812           0
(PID.TID 0000.0001) ctrl-wet 14: global nWet C/S/W/V k=   27        4002        3819        3801           0
(PID.TID 0000.0001) ctrl-wet 14: global nWet C/S/W/V k=   28        3981        3798        3782           0
(PID.TID 0000.0001) ctrl-wet 14: global nWet C/S/W/V k=   29        3971        3786        3768           0
(PID.TID 0000.0001) ctrl-wet 14: global nWet C/S/W/V k=   30        3944        3756        3737           0
(PID.TID 0000.0001) ctrl-wet 14: global nWet C/S/W/V k=   31        3932        3746        3725           0
(PID.TID 0000.0001) ctrl-wet 14: global nWet C/S/W/V k=   32        3910        3723        3700           0
(PID.TID 0000.0001) ctrl-wet 14: global nWet C/S/W/V k=   33        3897        3709        3684           0
(PID.TID 0000.0001) ctrl-wet 14: global nWet C/S/W/V k=   34        3879        3689        3665           0
(PID.TID 0000.0001) ctrl-wet 14: global nWet C/S/W/V k=   35        3840        3652        3627           0
(PID.TID 0000.0001) ctrl-wet 14: global nWet C/S/W/V k=   36        3818        3628        3607           0
(PID.TID 0000.0001) ctrl-wet 14: global nWet C/S/W/V k=   37        3799        3605        3585           0
(PID.TID 0000.0001) ctrl-wet 14: global nWet C/S/W/V k=   38        3748        3547        3515           0
(PID.TID 0000.0001) ctrl-wet 14: global nWet C/S/W/V k=   39        3712        3509        3474           0
(PID.TID 0000.0001) ctrl-wet 14: global nWet C/S/W/V k=   40        3675        3469        3431           0
(PID.TID 0000.0001) ctrl-wet 14: global nWet C/S/W/V k=   41        3582        3369        3334           0
(PID.TID 0000.0001) ctrl-wet 14: global nWet C/S/W/V k=   42        3512        3293        3254           0
(PID.TID 0000.0001) ctrl-wet 14: global nWet C/S/W/V k=   43        3302        3039        3018           0
(PID.TID 0000.0001) ctrl-wet 14: global nWet C/S/W/V k=   44        3092        2794        2784           0
(PID.TID 0000.0001) ctrl-wet 14: global nWet C/S/W/V k=   45        2721        2419        2394           0
(PID.TID 0000.0001) ctrl-wet 14: global nWet C/S/W/V k=   46        2237        1936        1924           0
(PID.TID 0000.0001) ctrl-wet 14: global nWet C/S/W/V k=   47        1745        1471        1443           0
(PID.TID 0000.0001) ctrl-wet 14: global nWet C/S/W/V k=   48        1133         922         899           0
(PID.TID 0000.0001) ctrl-wet 14: global nWet C/S/W/V k=   49         483         345         328           0
(PID.TID 0000.0001) ctrl-wet 14: global nWet C/S/W/V k=   50          99          61          53           0
(PID.TID 0000.0001) ctrl-wet -------------------------------------------------
(PID.TID 0000.0001) ctrl-wet -------------------------------------------------
(PID.TID 0000.0001) ctrl-wet -------------------------------------------------
(PID.TID 0000.0001) ctrl_init: no. of control variables:           12
(PID.TID 0000.0001) ctrl_init: control vector length:          990810
(PID.TID 0000.0001) 
(PID.TID 0000.0001) // =======================================================
(PID.TID 0000.0001) // Seaice configuration (SEAICE_PARM01) >>> START <<<
(PID.TID 0000.0001) // =======================================================
(PID.TID 0000.0001) 
(PID.TID 0000.0001) 
(PID.TID 0000.0001)    Seaice time stepping configuration   > START <
(PID.TID 0000.0001)    ----------------------------------------------
(PID.TID 0000.0001) SEAICE_deltaTtherm= /* thermodynamic timestep */
(PID.TID 0000.0001)                 4.320000000000000E+04
(PID.TID 0000.0001)     ;
(PID.TID 0000.0001) SEAICE_deltaTdyn  = /* dynamic timestep */
(PID.TID 0000.0001)                 4.320000000000000E+04
(PID.TID 0000.0001)     ;
(PID.TID 0000.0001) SEAICE_deltaTevp  = /* EVP timestep */
(PID.TID 0000.0001)                 1.234567000000000E+05
(PID.TID 0000.0001)     ;
(PID.TID 0000.0001) SEAICErestoreUnderIce  = /* restore T and S under ice */
(PID.TID 0000.0001)                   T
(PID.TID 0000.0001)     ;
(PID.TID 0000.0001) 
(PID.TID 0000.0001)    Seaice dynamics configuration   > START <
(PID.TID 0000.0001)    ------------------------------------------
(PID.TID 0000.0001) SEAICEuseDYNAMICS = /* use dynamics */
(PID.TID 0000.0001)                   T
(PID.TID 0000.0001)     ;
(PID.TID 0000.0001) model grid type   = /* type of sea ice model grid */
(PID.TID 0000.0001)               'C-GRID'
(PID.TID 0000.0001)     ;
(PID.TID 0000.0001) SEAICEuseEVP      = /* use EVP solver rather than LSR */
(PID.TID 0000.0001)                   F
(PID.TID 0000.0001)     ;
(PID.TID 0000.0001) SEAICEuseFREEDRIFT = /* use free drift solution */
(PID.TID 0000.0001)                   F
(PID.TID 0000.0001)     ;
(PID.TID 0000.0001) OCEAN_drag        = /* air-ocean drag coefficient */
(PID.TID 0000.0001)                 1.000000000000000E-03
(PID.TID 0000.0001)     ;
(PID.TID 0000.0001) SEAICE_drag       = /* air-ice drag coefficient */
(PID.TID 0000.0001)                 2.000000000000000E-03
(PID.TID 0000.0001)     ;
(PID.TID 0000.0001) SEAICE_drag_south      = /* Southern Ocean SEAICE_drag */
(PID.TID 0000.0001)                 2.000000000000000E-03
(PID.TID 0000.0001)     ;
(PID.TID 0000.0001) SEAICE_waterDrag  = /* water-ice drag * density */
(PID.TID 0000.0001)                 5.500000000000000E+00
(PID.TID 0000.0001)     ;
(PID.TID 0000.0001) SEAICE_waterDrag_south = /* Southern Ocean waterDrag */
(PID.TID 0000.0001)                 5.500000000000000E+00
(PID.TID 0000.0001)     ;
(PID.TID 0000.0001) SEAICEuseTILT     = /* include surface tilt in dyna. */
(PID.TID 0000.0001)                   F
(PID.TID 0000.0001)     ;
(PID.TID 0000.0001) SEAICEuseTEM      = /* use truncated ellipse rheology */
(PID.TID 0000.0001)                   F
(PID.TID 0000.0001)     ;
(PID.TID 0000.0001) SEAICE_strength   = /* sea-ice strength Pstar */
(PID.TID 0000.0001)                 2.750000000000000E+04
(PID.TID 0000.0001)     ;
(PID.TID 0000.0001) SEAICEpresH0   = /* sea-ice strength Heff threshold */
(PID.TID 0000.0001)                 2.000000000000000E+00
(PID.TID 0000.0001)     ;
(PID.TID 0000.0001) SEAICEpresPow0 = /* exponent for Heff<SEAICEpresH0 */
(PID.TID 0000.0001)                       1
(PID.TID 0000.0001)     ;
(PID.TID 0000.0001) SEAICEpresPow1 = /* exponent for Heff>SEAICEpresH0 */
(PID.TID 0000.0001)                       3
(PID.TID 0000.0001)     ;
(PID.TID 0000.0001) SEAICE_zetaMin    = /* lower bound for viscosity */
(PID.TID 0000.0001)                 0.000000000000000E+00
(PID.TID 0000.0001)     ;
(PID.TID 0000.0001) SEAICE_eccen    = /* elliptical yield curve eccent */
(PID.TID 0000.0001)                 2.000000000000000E+00
(PID.TID 0000.0001)     ;
(PID.TID 0000.0001) SEAICEstressFactor    = /* wind stress scaling factor */
(PID.TID 0000.0001)                 1.000000000000000E+00
(PID.TID 0000.0001)     ;
(PID.TID 0000.0001) SEAICE_airTurnAngle    = /* air-ice turning angle */
(PID.TID 0000.0001)                 0.000000000000000E+00
(PID.TID 0000.0001)     ;
(PID.TID 0000.0001) SEAICE_waterTurnAngle  = /* ice-water turning angle */
(PID.TID 0000.0001)                 0.000000000000000E+00
(PID.TID 0000.0001)     ;
(PID.TID 0000.0001) SEAICEuseMetricTerms = /* use metric terms */
(PID.TID 0000.0001)                   T
(PID.TID 0000.0001)     ;
(PID.TID 0000.0001) SEAICE_no_slip    = /* no slip boundary conditions */
(PID.TID 0000.0001)                   F
(PID.TID 0000.0001)     ;
(PID.TID 0000.0001) SEAICE_clipVeloctities = /* impose max. vels. */
(PID.TID 0000.0001)                   T
(PID.TID 0000.0001)     ;
(PID.TID 0000.0001) useHB87stressCoupling  = /* altern. ice-ocean stress */
(PID.TID 0000.0001)                   F
(PID.TID 0000.0001)     ;
(PID.TID 0000.0001) SEAICE_maskRHS    = /* mask RHS of solver */
(PID.TID 0000.0001)                   F
(PID.TID 0000.0001)     ;
(PID.TID 0000.0001) LSR_mixIniGuess = /* mix free-drift sol. into LSR initial Guess */
(PID.TID 0000.0001)                       0
(PID.TID 0000.0001)     ;
(PID.TID 0000.0001) SOLV_MAX_ITERS    = /* max. number of LSR solver steps */
(PID.TID 0000.0001)                    1500
(PID.TID 0000.0001)     ;
(PID.TID 0000.0001) LSR_ERROR         = /* sets accuracy of LSR solver */
(PID.TID 0000.0001)                 2.000000000000000E-04
(PID.TID 0000.0001)     ;
(PID.TID 0000.0001) SOLV_NCHECK       = /* test interval for LSR solver */
(PID.TID 0000.0001)                       2
(PID.TID 0000.0001)     ;
(PID.TID 0000.0001) NPSEUDOTIMESTEPS  = /* num. of extra pseudo time steps */
(PID.TID 0000.0001)                       2
(PID.TID 0000.0001)     ;
(PID.TID 0000.0001) 
(PID.TID 0000.0001)    Seaice thermodynamics configuration   > START <
(PID.TID 0000.0001)    -----------------------------------------------
(PID.TID 0000.0001) SEAICE_rhoIce     = /* density of sea ice (kg/m3) */
(PID.TID 0000.0001)                 9.100000000000000E+02
(PID.TID 0000.0001)     ;
(PID.TID 0000.0001) SEAICE_rhoSnow    = /* density of snow (kg/m3) */
(PID.TID 0000.0001)                 3.300000000000000E+02
(PID.TID 0000.0001)     ;
(PID.TID 0000.0001) SEAICE_rhoAir     = /* density of air (kg/m3) */
(PID.TID 0000.0001)                 1.220000000000000E+00
(PID.TID 0000.0001)     ;
(PID.TID 0000.0001) usePW79thermodynamics  = /* default 0-layer TD */
(PID.TID 0000.0001)                   T
(PID.TID 0000.0001)     ;
(PID.TID 0000.0001) SEAICE_lhEvap     = /* latent heat of evaporation */
(PID.TID 0000.0001)                 2.500000000000000E+06
(PID.TID 0000.0001)     ;
(PID.TID 0000.0001) SEAICE_lhFusion   = /* latent heat of fusion */
(PID.TID 0000.0001)                 3.340000000000000E+05
(PID.TID 0000.0001)     ;
(PID.TID 0000.0001) SEAICE_mcPheePiston = /* turbulent flux "piston velocity" a la McPhee (m/s) */
(PID.TID 0000.0001)                 3.858024691358025E-05
(PID.TID 0000.0001)     ;
(PID.TID 0000.0001) SEAICE_mcPheeTaper = /* tapering of turbulent flux (0.< <1.) for AREA=1. */
(PID.TID 0000.0001)                 0.000000000000000E+00
(PID.TID 0000.0001)     ;
(PID.TID 0000.0001) SEAICE_mcPheeStepFunc = /* replace linear tapering with step funct. */
(PID.TID 0000.0001)                   F
(PID.TID 0000.0001)     ;
(PID.TID 0000.0001) SEAICE_frazilFrac = /* frazil (T<tempFrz) to seaice conversion rate (0.< <1.) */
(PID.TID 0000.0001)                 1.000000000000000E+00
(PID.TID 0000.0001)     ;
(PID.TID 0000.0001) SEAICE_tempFrz0   = /* freezing temp. of sea water (intercept) */
(PID.TID 0000.0001)                -1.960000000000000E+00
(PID.TID 0000.0001)     ;
(PID.TID 0000.0001) SEAICE_dTempFrz_dS= /* freezing temp. of sea water (slope) */
(PID.TID 0000.0001)                 0.000000000000000E+00
(PID.TID 0000.0001)     ;
(PID.TID 0000.0001) SEAICE_areaGainFormula = /* ice cover gain formula (1,2)*/
(PID.TID 0000.0001)                       1
(PID.TID 0000.0001)     1=from growth by ATM
(PID.TID 0000.0001)     2=from predicted growth by ATM
(PID.TID 0000.0001)     ;
(PID.TID 0000.0001) SEAICE_areaLossFormula = /* ice cover loss formula (1,2)*/
(PID.TID 0000.0001)                       2
(PID.TID 0000.0001)     1=from all but only melt conributions by ATM and OCN
(PID.TID 0000.0001)     2=from net melt-grow>0 by ATM and OCN
(PID.TID 0000.0001)     3=from predicted melt by ATM
(PID.TID 0000.0001)     ;
(PID.TID 0000.0001) HO                = /* nominal thickness of new ice */
(PID.TID 0000.0001)                 5.000000000000000E-01
(PID.TID 0000.0001)     ;
(PID.TID 0000.0001) HO_south               = /* Southern Ocean HO */
(PID.TID 0000.0001)                 5.000000000000000E-01
(PID.TID 0000.0001)     ;
(PID.TID 0000.0001) SEAICE_area_max        = /* set to les than 1. to mimic open leads */
(PID.TID 0000.0001)                 9.500000000000000E-01
(PID.TID 0000.0001)     ;
(PID.TID 0000.0001) SEAICE_salt0   = /* constant sea ice salinity */
(PID.TID 0000.0001)                 4.000000000000000E+00
(PID.TID 0000.0001)     ;
(PID.TID 0000.0001) SEAICE_salinityTracer = /* test SITR varia. salinity */
(PID.TID 0000.0001)                   F
(PID.TID 0000.0001)     ;
(PID.TID 0000.0001) SEAICEuseFlooding = /* turn submerged snow into ice */
(PID.TID 0000.0001)                   T
(PID.TID 0000.0001)     ;
(PID.TID 0000.0001) MAX_HEFF has no effect because SEAICE_CAP_HEFF is undefined
(PID.TID 0000.0001) MAX_HEFF          = /* maximum ice thickness */
(PID.TID 0000.0001)                 1.000000000000000E+01
(PID.TID 0000.0001)     ;
(PID.TID 0000.0001) 
(PID.TID 0000.0001)    Seaice advection diffusion config,   > START <
(PID.TID 0000.0001)    -----------------------------------------------
(PID.TID 0000.0001) SEAICEadvHeff = /* advect effective ice thickness */
(PID.TID 0000.0001)                   T
(PID.TID 0000.0001)     ;
(PID.TID 0000.0001) SEAICEadvArea = /* advect fractional ice area */
(PID.TID 0000.0001)                   T
(PID.TID 0000.0001)     ;
(PID.TID 0000.0001) SEAICEadvSnow = /* advect snow layer together with ice */
(PID.TID 0000.0001)                   T
(PID.TID 0000.0001)     ;
(PID.TID 0000.0001) SEAICEadvScheme   = /* advection scheme for ice */
(PID.TID 0000.0001)                      30
(PID.TID 0000.0001)     ;
(PID.TID 0000.0001) SEAICEadvSchArea   = /* advection scheme for area */
(PID.TID 0000.0001)                      30
(PID.TID 0000.0001)     ;
(PID.TID 0000.0001) SEAICEadvSchHeff   = /* advection scheme for thickness */
(PID.TID 0000.0001)                      30
(PID.TID 0000.0001)     ;
(PID.TID 0000.0001) SEAICEadvSchSnow   = /* advection scheme for snow */
(PID.TID 0000.0001)                      30
(PID.TID 0000.0001)     ;
(PID.TID 0000.0001) SEAICEdiffKhArea   = /* diffusivity (m^2/s) for area */
(PID.TID 0000.0001)                 4.000000000000000E+02
(PID.TID 0000.0001)     ;
(PID.TID 0000.0001) SEAICEdiffKhHeff   = /* diffusivity (m^2/s) for heff */
(PID.TID 0000.0001)                 4.000000000000000E+02
(PID.TID 0000.0001)     ;
(PID.TID 0000.0001) SEAICEdiffKhSnow   = /* diffusivity (m^2/s) for snow */
(PID.TID 0000.0001)                 4.000000000000000E+02
(PID.TID 0000.0001)     ;
(PID.TID 0000.0001) DIFF1             = /* parameter used in advect.F [m/s] */
(PID.TID 0000.0001)                 0.000000000000000E+00
(PID.TID 0000.0001)     ;
(PID.TID 0000.0001) 
(PID.TID 0000.0001)    Seaice air-sea fluxes configuration,   > START <
(PID.TID 0000.0001)    -----------------------------------------------
(PID.TID 0000.0001) SEAICEheatConsFix  = /* accound for ocn<->seaice advect. heat flux */
(PID.TID 0000.0001)                   T
(PID.TID 0000.0001)     ;
(PID.TID 0000.0001) SEAICE_multDim    = /* number of ice categories (1 or 7) */
(PID.TID 0000.0001)                       1
(PID.TID 0000.0001)     ;
(PID.TID 0000.0001) IMAX_TICE         = /* iterations for ice surface temp */
(PID.TID 0000.0001)                      10
(PID.TID 0000.0001)     ;
(PID.TID 0000.0001) postSolvTempIter= /* flux calculation after surf. temp iter */
(PID.TID 0000.0001)                       2
(PID.TID 0000.0001)     ;
(PID.TID 0000.0001) SEAICE_dryIceAlb  = /* winter albedo */
(PID.TID 0000.0001)                 8.400000000000000E-01
(PID.TID 0000.0001)     ;
(PID.TID 0000.0001) SEAICE_wetIceAlb  = /* summer albedo */
(PID.TID 0000.0001)                 7.800000000000000E-01
(PID.TID 0000.0001)     ;
(PID.TID 0000.0001) SEAICE_drySnowAlb = /* dry snow albedo */
(PID.TID 0000.0001)                 9.000000000000000E-01
(PID.TID 0000.0001)     ;
(PID.TID 0000.0001) SEAICE_wetSnowAlb = /* wet snow albedo */
(PID.TID 0000.0001)                 8.000000000000000E-01
(PID.TID 0000.0001)     ;
(PID.TID 0000.0001) SEAICE_dryIceAlb_south = /* Southern Ocean dryIceAlb */
(PID.TID 0000.0001)                 7.500000000000000E-01
(PID.TID 0000.0001)     ;
(PID.TID 0000.0001) SEAICE_wetIceAlb_south = /* Southern Ocean wetIceAlb */
(PID.TID 0000.0001)                 6.600000000000000E-01
(PID.TID 0000.0001)     ;
(PID.TID 0000.0001) SEAICE_drySnowAlb_south= /* Southern Ocean drySnowAlb */
(PID.TID 0000.0001)                 8.400000000000000E-01
(PID.TID 0000.0001)     ;
(PID.TID 0000.0001) SEAICE_wetSnowAlb_south= /* Southern Ocean wetSnowAlb */
(PID.TID 0000.0001)                 7.000000000000000E-01
(PID.TID 0000.0001)     ;
(PID.TID 0000.0001) SEAICE_wetAlbTemp= /* Temp (o.C) threshold for wet-albedo */
(PID.TID 0000.0001)                -1.000000000000000E-03
(PID.TID 0000.0001)     ;
(PID.TID 0000.0001) SEAICE_snow_emiss = /* snow emissivity */
(PID.TID 0000.0001)                 9.500000000000000E-01
(PID.TID 0000.0001)     ;
(PID.TID 0000.0001) SEAICE_ice_emiss = /* seaice emissivity */
(PID.TID 0000.0001)                 9.500000000000000E-01
(PID.TID 0000.0001)     ;
(PID.TID 0000.0001) SEAICE_cpAir      = /* heat capacity of air */
(PID.TID 0000.0001)                 1.005000000000000E+03
(PID.TID 0000.0001)     ;
(PID.TID 0000.0001) SEAICE_dalton     = /* constant dalton number */
(PID.TID 0000.0001)                 1.750000000000000E-03
(PID.TID 0000.0001)     ;
(PID.TID 0000.0001) SEAICE_iceConduct = /* sea-ice conductivity */
(PID.TID 0000.0001)                 2.165600000000000E+00
(PID.TID 0000.0001)     ;
(PID.TID 0000.0001) SEAICE_snowConduct= /* snow conductivity */
(PID.TID 0000.0001)                 3.100000000000000E-01
(PID.TID 0000.0001)     ;
(PID.TID 0000.0001) SEAICE_snowThick  = /* cutoff snow thickness (for albedo) */
(PID.TID 0000.0001)                 1.500000000000000E-01
(PID.TID 0000.0001)     ;
(PID.TID 0000.0001) SEAICE_shortwave  = /* penetration shortwave radiation */
(PID.TID 0000.0001)                 3.000000000000000E-01
(PID.TID 0000.0001)     ;
(PID.TID 0000.0001) useMaykutSatVapPoly = /* use Maykut Polynomial for Sat.Vap.Pr */
(PID.TID 0000.0001)                   F
(PID.TID 0000.0001)     ;
(PID.TID 0000.0001) MIN_ATEMP         = /* minimum air temperature */
(PID.TID 0000.0001)                -4.000000000000000E+01
(PID.TID 0000.0001)     ;
(PID.TID 0000.0001) MIN_LWDOWN        = /* minimum downward longwave */
(PID.TID 0000.0001)                 6.000000000000000E+01
(PID.TID 0000.0001)     ;
(PID.TID 0000.0001) MIN_TICE          = /* minimum ice temperature */
(PID.TID 0000.0001)                -4.000000000000000E+01
(PID.TID 0000.0001)     ;
(PID.TID 0000.0001) 
(PID.TID 0000.0001)    Seaice initialization and IO config.,   > START <
(PID.TID 0000.0001)    -------------------------------------------------
(PID.TID 0000.0001) SEAICE_initialHEFF= /* initial sea-ice thickness */
(PID.TID 0000.0001)                 0.000000000000000E+00
(PID.TID 0000.0001)     ;
(PID.TID 0000.0001) AreaFile = /* Initial ice concentration File */
(PID.TID 0000.0001)               ''
(PID.TID 0000.0001)     ;
(PID.TID 0000.0001) HeffFile = /* Initial effective ice thickness File */
(PID.TID 0000.0001)               ''
(PID.TID 0000.0001)     ;
(PID.TID 0000.0001) HsnowFile = /* Initial snow thickness File */
(PID.TID 0000.0001)               ''
(PID.TID 0000.0001)     ;
(PID.TID 0000.0001) uIceFile = /* Initial U-ice velocity File */
(PID.TID 0000.0001)               ''
(PID.TID 0000.0001)     ;
(PID.TID 0000.0001) vIceFile = /* Initial V-ice velocity File */
(PID.TID 0000.0001)               ''
(PID.TID 0000.0001)     ;
(PID.TID 0000.0001) SEAICEwriteState  = /* write sea ice state to file */
(PID.TID 0000.0001)                   F
(PID.TID 0000.0001)     ;
(PID.TID 0000.0001) SEAICE_monFreq  = /* monitor frequency */
(PID.TID 0000.0001)                 8.640000000000000E+04
(PID.TID 0000.0001)     ;
(PID.TID 0000.0001) SEAICE_dumpFreq   = /* dump frequency */
(PID.TID 0000.0001)                 0.000000000000000E+00
(PID.TID 0000.0001)     ;
(PID.TID 0000.0001) SEAICE_taveFreq   = /* time-averaging frequency */
(PID.TID 0000.0001)                 0.000000000000000E+00
(PID.TID 0000.0001)     ;
(PID.TID 0000.0001) SEAICE_mon_stdio  = /* write monitor to std-outp */
(PID.TID 0000.0001)                   T
(PID.TID 0000.0001)     ;
(PID.TID 0000.0001) SEAICE_dump_mdsio = /* write snap-shot   using MDSIO */
(PID.TID 0000.0001)                   T
(PID.TID 0000.0001)     ;
(PID.TID 0000.0001) SEAICE_tave_mdsio = /* write TimeAverage using MDSIO */
(PID.TID 0000.0001)                   T
(PID.TID 0000.0001)     ;
(PID.TID 0000.0001) 
(PID.TID 0000.0001)    Seaice regularization numbers,   > START <
(PID.TID 0000.0001)    -----------------------------------------------
(PID.TID 0000.0001) SEAICE_EPS        = /* reduce derivative singularities */
(PID.TID 0000.0001)                 1.000000000000000E-10
(PID.TID 0000.0001)     ;
(PID.TID 0000.0001) SEAICE_EPS_SQ     = /* reduce derivative singularities */
(PID.TID 0000.0001)                 1.000000000000000E-20
(PID.TID 0000.0001)     ;
(PID.TID 0000.0001) SEAICE_area_reg   = /* reduce derivative singularities */
(PID.TID 0000.0001)                 1.000000000000000E-05
(PID.TID 0000.0001)     ;
(PID.TID 0000.0001) SEAICE_hice_reg   = /* reduce derivative singularities */
(PID.TID 0000.0001)                 5.000000000000000E-02
(PID.TID 0000.0001)     ;
(PID.TID 0000.0001) SEAICE_area_floor = /* reduce derivative singularities */
(PID.TID 0000.0001)                 1.000000000000000E-05
(PID.TID 0000.0001)     ;
(PID.TID 0000.0001) // =======================================================
(PID.TID 0000.0001) // Seaice configuration (SEAICE_PARM01) >>> END <<<
(PID.TID 0000.0001) // =======================================================
(PID.TID 0000.0001) ------------------------------------------------------------
(PID.TID 0000.0001) DIAGNOSTICS_SET_LEVELS: done
(PID.TID 0000.0001)  Total Nb of available Diagnostics: ndiagt=   286
(PID.TID 0000.0001)  write list of available Diagnostics to file: available_diagnostics.log
(PID.TID 0000.0001) SETDIAG: Allocate  1 x  1 Levels for Diagnostic #    23 ETAN
(PID.TID 0000.0001) SETDIAG: Allocate  1 x  1 Levels for Diagnostic #   216 SIarea
(PID.TID 0000.0001) SETDIAG: Allocate  1 x  1 Levels for Diagnostic #   219 SIheff
(PID.TID 0000.0001) SETDIAG: Allocate  1 x  1 Levels for Diagnostic #   221 SIhsnow
(PID.TID 0000.0001) SETDIAG: Allocate  1 x  1 Levels for Diagnostic #    25 DETADT2
(PID.TID 0000.0001) SETDIAG: Allocate  1 x  1 Levels for Diagnostic #    73 PHIBOT
(PID.TID 0000.0001) SETDIAG: Allocate  1 x  1 Levels for Diagnostic #    82 sIceLoad
(PID.TID 0000.0001) SETDIAG: Allocate  1 x  1 Levels for Diagnostic #    76 MXLDEPTH
(PID.TID 0000.0001) SETDIAG: Allocate  1 x  1 Levels for Diagnostic #   286 oceSPDep
(PID.TID 0000.0001) SETDIAG: Allocate  1 x  1 Levels for Diagnostic #   233 SIatmQnt
(PID.TID 0000.0001) SETDIAG: Allocate  1 x  1 Levels for Diagnostic #   240 SIatmFW
(PID.TID 0000.0001) SETDIAG: Allocate  1 x  1 Levels for Diagnostic #    85 oceQnet
(PID.TID 0000.0001) SETDIAG: Allocate  1 x  1 Levels for Diagnostic #    83 oceFWflx
(PID.TID 0000.0001) SETDIAG: Allocate  1 x  1 Levels for Diagnostic #    79 oceTAUX
(PID.TID 0000.0001) SETDIAG: Allocate  1 x  1 Levels for Diagnostic #    80 oceTAUY
(PID.TID 0000.0001) SETDIAG: Allocate  1 x  1 Levels for Diagnostic #   260 ADVxHEFF
(PID.TID 0000.0001) SETDIAG: Allocate  1 x  1 Levels for Diagnostic #   261 ADVyHEFF
(PID.TID 0000.0001) SETDIAG: Allocate  1 x  1 Levels for Diagnostic #   264 DFxEHEFF
(PID.TID 0000.0001) SETDIAG: Allocate  1 x  1 Levels for Diagnostic #   265 DFyEHEFF
(PID.TID 0000.0001) SETDIAG: Allocate  1 x  1 Levels for Diagnostic #   270 ADVxSNOW
(PID.TID 0000.0001) SETDIAG: Allocate  1 x  1 Levels for Diagnostic #   271 ADVySNOW
(PID.TID 0000.0001) SETDIAG: Allocate  1 x  1 Levels for Diagnostic #   272 DFxESNOW
(PID.TID 0000.0001) SETDIAG: Allocate  1 x  1 Levels for Diagnostic #   273 DFyESNOW
(PID.TID 0000.0001) SETDIAG: Allocate 50 x  1 Levels for Diagnostic #    26 THETA
(PID.TID 0000.0001) SETDIAG: Allocate 50 x  1 Levels for Diagnostic #    27 SALT
(PID.TID 0000.0001) SETDIAG: Allocate 50 x  1 Levels for Diagnostic #    77 DRHODR
(PID.TID 0000.0001) SETDIAG: Allocate 50 x  1 Levels for Diagnostic #    45 UVELMASS
(PID.TID 0000.0001) SETDIAG: Allocate 50 x  1 Levels for Diagnostic #    46 VVELMASS
(PID.TID 0000.0001) SETDIAG: Allocate 50 x  1 Levels for Diagnostic #    47 WVELMASS
(PID.TID 0000.0001) SETDIAG: Allocate 50 x  1 Levels for Diagnostic #   203 GM_PsiX
(PID.TID 0000.0001) SETDIAG: Allocate 50 x  1 Levels for Diagnostic #   204 GM_PsiY
(PID.TID 0000.0001) SETDIAG: Allocate 50 x  1 Levels for Diagnostic #   110 DFxE_TH
(PID.TID 0000.0001) SETDIAG: Allocate 50 x  1 Levels for Diagnostic #   111 DFyE_TH
(PID.TID 0000.0001) SETDIAG: Allocate 50 x  1 Levels for Diagnostic #   107 ADVx_TH
(PID.TID 0000.0001) SETDIAG: Allocate 50 x  1 Levels for Diagnostic #   108 ADVy_TH
(PID.TID 0000.0001) SETDIAG: Allocate 50 x  1 Levels for Diagnostic #   117 DFxE_SLT
(PID.TID 0000.0001) SETDIAG: Allocate 50 x  1 Levels for Diagnostic #   118 DFyE_SLT
(PID.TID 0000.0001) SETDIAG: Allocate 50 x  1 Levels for Diagnostic #   114 ADVx_SLT
(PID.TID 0000.0001) SETDIAG: Allocate 50 x  1 Levels for Diagnostic #   115 ADVy_SLT
(PID.TID 0000.0001) SETDIAG: Allocate  1 x  1 Levels for Diagnostic #    23 ETAN
(PID.TID 0000.0001) SETDIAG: Allocate  1 x  1 Levels for Diagnostic #   219 SIheff
(PID.TID 0000.0001) SETDIAG: Allocate  1 x  1 Levels for Diagnostic #   221 SIhsnow
(PID.TID 0000.0001) SETDIAG: Allocate  1 x  1 Levels for Diagnostic #   216 SIarea
(PID.TID 0000.0001) SETDIAG: Allocate  1 x  1 Levels for Diagnostic #    82 sIceLoad
(PID.TID 0000.0001) SETDIAG: Allocate  1 x  1 Levels for Diagnostic #    73 PHIBOT
(PID.TID 0000.0001) SETDIAG: Allocate 50 x  1 Levels for Diagnostic #    26 THETA
(PID.TID 0000.0001) SETDIAG: Allocate 50 x  1 Levels for Diagnostic #    27 SALT
(PID.TID 0000.0001) SETDIAG: Allocate  1 x  1 Levels for Diagnostic #    83 oceFWflx
(PID.TID 0000.0001) SETDIAG: Allocate  1 x  1 Levels for Diagnostic #   240 SIatmFW
(PID.TID 0000.0001) SETDIAG: Allocate  1 x  1 Levels for Diagnostic #    92 TFLUX
(PID.TID 0000.0001) SETDIAG: Allocate  1 x  1 Levels for Diagnostic #   234 SItflux
(PID.TID 0000.0001) SETDIAG: Allocate  1 x  1 Levels for Diagnostic #    93 SFLUX
(PID.TID 0000.0001) SETDIAG: Allocate  1 x  1 Levels for Diagnostic #   285 oceSPflx
(PID.TID 0000.0001) SETDIAG: Allocate  1 x  1 Levels for Diagnostic #    89 SRELAX
(PID.TID 0000.0001) SETDIAG: Allocate  1 x  1 Levels for Diagnostic #    88 TRELAX
(PID.TID 0000.0001) SETDIAG: Allocate 50 x  1 Levels for Diagnostic #    45 UVELMASS
(PID.TID 0000.0001) SETDIAG: Allocate 50 x  1 Levels for Diagnostic #    46 VVELMASS
(PID.TID 0000.0001) SETDIAG: Allocate 50 x  1 Levels for Diagnostic #   107 ADVx_TH
(PID.TID 0000.0001) SETDIAG: Allocate 50 x  1 Levels for Diagnostic #   108 ADVy_TH
(PID.TID 0000.0001) SETDIAG: Allocate 50 x  1 Levels for Diagnostic #   110 DFxE_TH
(PID.TID 0000.0001) SETDIAG: Allocate 50 x  1 Levels for Diagnostic #   111 DFyE_TH
(PID.TID 0000.0001) SETDIAG: Allocate 50 x  1 Levels for Diagnostic #   114 ADVx_SLT
(PID.TID 0000.0001) SETDIAG: Allocate 50 x  1 Levels for Diagnostic #   115 ADVy_SLT
(PID.TID 0000.0001) SETDIAG: Allocate 50 x  1 Levels for Diagnostic #   117 DFxE_SLT
(PID.TID 0000.0001) SETDIAG: Allocate 50 x  1 Levels for Diagnostic #   118 DFyE_SLT
(PID.TID 0000.0001) SETDIAG: Allocate  1 x  1 Levels for Diagnostic #   260 ADVxHEFF
(PID.TID 0000.0001) SETDIAG: Allocate  1 x  1 Levels for Diagnostic #   261 ADVyHEFF
(PID.TID 0000.0001) SETDIAG: Allocate  1 x  1 Levels for Diagnostic #   264 DFxEHEFF
(PID.TID 0000.0001) SETDIAG: Allocate  1 x  1 Levels for Diagnostic #   265 DFyEHEFF
(PID.TID 0000.0001) SETDIAG: Allocate  1 x  1 Levels for Diagnostic #   270 ADVxSNOW
(PID.TID 0000.0001) SETDIAG: Allocate  1 x  1 Levels for Diagnostic #   271 ADVySNOW
(PID.TID 0000.0001) SETDIAG: Allocate  1 x  1 Levels for Diagnostic #   272 DFxESNOW
(PID.TID 0000.0001) SETDIAG: Allocate  1 x  1 Levels for Diagnostic #   273 DFyESNOW
(PID.TID 0000.0001) SETDIAG: Allocate  1 x  1 Levels for Diagnostic #   187 EXFpreci
(PID.TID 0000.0001) SETDIAG: Allocate  1 x  1 Levels for Diagnostic #   186 EXFevap
(PID.TID 0000.0001) SETDIAG: Allocate  1 x  1 Levels for Diagnostic #   191 EXFroff
(PID.TID 0000.0001) SETDIAG: Allocate  1 x  1 Levels for Diagnostic #   189 EXFempmr
(PID.TID 0000.0001) SETDIAG: Allocate  1 x  1 Levels for Diagnostic #   177 EXFswdn
(PID.TID 0000.0001) SETDIAG: Allocate  1 x  1 Levels for Diagnostic #   176 EXFlwdn
(PID.TID 0000.0001) SETDIAG: Allocate  1 x  1 Levels for Diagnostic #   175 EXFswnet
(PID.TID 0000.0001) SETDIAG: Allocate  1 x  1 Levels for Diagnostic #   174 EXFlwnet
(PID.TID 0000.0001) SETDIAG: Allocate  1 x  1 Levels for Diagnostic #   178 EXFqnet
(PID.TID 0000.0001) SETDIAG: Allocate  1 x  1 Levels for Diagnostic #   184 EXFatemp
(PID.TID 0000.0001) SETDIAG: Allocate  1 x  1 Levels for Diagnostic #   185 EXFaqh
(PID.TID 0000.0001) SETDIAG: Allocate  1 x  1 Levels for Diagnostic #   179 EXFtaux
(PID.TID 0000.0001) SETDIAG: Allocate  1 x  1 Levels for Diagnostic #   180 EXFtauy
(PID.TID 0000.0001)   space allocated for all diagnostics:    1458 levels
(PID.TID 0000.0001)   set mate pointer for diag #    79  oceTAUX  , Parms: UU      U1 , mate:    80
(PID.TID 0000.0001)   set mate pointer for diag #    80  oceTAUY  , Parms: VV      U1 , mate:    79
(PID.TID 0000.0001)   set mate pointer for diag #   260  ADVxHEFF , Parms: UU      M1 , mate:   261
(PID.TID 0000.0001)   set mate pointer for diag #   261  ADVyHEFF , Parms: VV      M1 , mate:   260
(PID.TID 0000.0001)   set mate pointer for diag #   264  DFxEHEFF , Parms: UU      M1 , mate:   265
(PID.TID 0000.0001)   set mate pointer for diag #   265  DFyEHEFF , Parms: VV      M1 , mate:   264
(PID.TID 0000.0001)   set mate pointer for diag #   270  ADVxSNOW , Parms: UU      M1 , mate:   271
(PID.TID 0000.0001)   set mate pointer for diag #   271  ADVySNOW , Parms: VV      M1 , mate:   270
(PID.TID 0000.0001)   set mate pointer for diag #   272  DFxESNOW , Parms: UU      M1 , mate:   273
(PID.TID 0000.0001)   set mate pointer for diag #   273  DFyESNOW , Parms: VV      M1 , mate:   272
(PID.TID 0000.0001)   set mate pointer for diag #    45  UVELMASS , Parms: UUr     MR , mate:    46
(PID.TID 0000.0001)   set mate pointer for diag #    46  VVELMASS , Parms: VVr     MR , mate:    45
(PID.TID 0000.0001)   set mate pointer for diag #   203  GM_PsiX  , Parms: UU      LR , mate:   204
(PID.TID 0000.0001)   set mate pointer for diag #   204  GM_PsiY  , Parms: VV      LR , mate:   203
(PID.TID 0000.0001)   set mate pointer for diag #   110  DFxE_TH  , Parms: UU      MR , mate:   111
(PID.TID 0000.0001)   set mate pointer for diag #   111  DFyE_TH  , Parms: VV      MR , mate:   110
(PID.TID 0000.0001)   set mate pointer for diag #   107  ADVx_TH  , Parms: UU      MR , mate:   108
(PID.TID 0000.0001)   set mate pointer for diag #   108  ADVy_TH  , Parms: VV      MR , mate:   107
(PID.TID 0000.0001)   set mate pointer for diag #   117  DFxE_SLT , Parms: UU      MR , mate:   118
(PID.TID 0000.0001)   set mate pointer for diag #   118  DFyE_SLT , Parms: VV      MR , mate:   117
(PID.TID 0000.0001)   set mate pointer for diag #   114  ADVx_SLT , Parms: UU      MR , mate:   115
(PID.TID 0000.0001)   set mate pointer for diag #   115  ADVy_SLT , Parms: VV      MR , mate:   114
(PID.TID 0000.0001)   set mate pointer for diag #    45  UVELMASS , Parms: UUr     MR , mate:    46
(PID.TID 0000.0001)   set mate pointer for diag #    46  VVELMASS , Parms: VVr     MR , mate:    45
(PID.TID 0000.0001)   set mate pointer for diag #   107  ADVx_TH  , Parms: UU      MR , mate:   108
(PID.TID 0000.0001)   set mate pointer for diag #   108  ADVy_TH  , Parms: VV      MR , mate:   107
(PID.TID 0000.0001)   set mate pointer for diag #   110  DFxE_TH  , Parms: UU      MR , mate:   111
(PID.TID 0000.0001)   set mate pointer for diag #   111  DFyE_TH  , Parms: VV      MR , mate:   110
(PID.TID 0000.0001)   set mate pointer for diag #   114  ADVx_SLT , Parms: UU      MR , mate:   115
(PID.TID 0000.0001)   set mate pointer for diag #   115  ADVy_SLT , Parms: VV      MR , mate:   114
(PID.TID 0000.0001)   set mate pointer for diag #   117  DFxE_SLT , Parms: UU      MR , mate:   118
(PID.TID 0000.0001)   set mate pointer for diag #   118  DFyE_SLT , Parms: VV      MR , mate:   117
(PID.TID 0000.0001)   set mate pointer for diag #   260  ADVxHEFF , Parms: UU      M1 , mate:   261
(PID.TID 0000.0001)   set mate pointer for diag #   261  ADVyHEFF , Parms: VV      M1 , mate:   260
(PID.TID 0000.0001)   set mate pointer for diag #   264  DFxEHEFF , Parms: UU      M1 , mate:   265
(PID.TID 0000.0001)   set mate pointer for diag #   265  DFyEHEFF , Parms: VV      M1 , mate:   264
(PID.TID 0000.0001)   set mate pointer for diag #   270  ADVxSNOW , Parms: UU      M1 , mate:   271
(PID.TID 0000.0001)   set mate pointer for diag #   271  ADVySNOW , Parms: VV      M1 , mate:   270
(PID.TID 0000.0001)   set mate pointer for diag #   272  DFxESNOW , Parms: UU      M1 , mate:   273
(PID.TID 0000.0001)   set mate pointer for diag #   273  DFyESNOW , Parms: VV      M1 , mate:   272
(PID.TID 0000.0001) DIAGNOSTICS_SET_POINTERS: Set levels for Outp.Stream: diags/state_2d_set1
(PID.TID 0000.0001)  Levels:       1.
(PID.TID 0000.0001) DIAGNOSTICS_SET_POINTERS: Set levels for Outp.Stream: diags/state_3d_set1
(PID.TID 0000.0001)  Levels:       1.   2.   3.   4.   5.   6.   7.   8.   9.  10.  11.  12.  13.  14.  15.  16.  17.  18.  19.  20.
(PID.TID 0000.0001)  Levels:      21.  22.  23.  24.  25.  26.  27.  28.  29.  30.  31.  32.  33.  34.  35.  36.  37.  38.  39.  40.
(PID.TID 0000.0001)  Levels:      41.  42.  43.  44.  45.  46.  47.  48.  49.  50.
(PID.TID 0000.0001) DIAGNOSTICS_SET_POINTERS: Set levels for Outp.Stream: diags/trsp_3d_set1
(PID.TID 0000.0001)  Levels:       1.   2.   3.   4.   5.   6.   7.   8.   9.  10.  11.  12.  13.  14.  15.  16.  17.  18.  19.  20.
(PID.TID 0000.0001)  Levels:      21.  22.  23.  24.  25.  26.  27.  28.  29.  30.  31.  32.  33.  34.  35.  36.  37.  38.  39.  40.
(PID.TID 0000.0001)  Levels:      41.  42.  43.  44.  45.  46.  47.  48.  49.  50.
(PID.TID 0000.0001) DIAGNOSTICS_SET_POINTERS: Set levels for Outp.Stream: diags/trsp_3d_set2
(PID.TID 0000.0001)  Sum Levels:   1.   2.   3.   4.   5.   6.   7.   8.   9.  10.  11.  12.  13.  14.  15.  16.  17.  18.  19.  20.
(PID.TID 0000.0001)  Sum Levels:  21.  22.  23.  24.  25.  26.  27.  28.  29.  30.  31.  32.  33.  34.  35.  36.  37.  38.  39.  40.
(PID.TID 0000.0001)  Sum Levels:  41.  42.  43.  44.  45.  46.  47.  48.  49.  50.
(PID.TID 0000.0001) DIAGNOSTICS_SET_POINTERS: Set levels for Outp.Stream: diags/budg2d_snap_set1
(PID.TID 0000.0001)  Levels:       1.
(PID.TID 0000.0001) DIAGNOSTICS_SET_POINTERS: Set levels for Outp.Stream: diags/budg2d_snap_set2
(PID.TID 0000.0001)  Sum Levels:   1.   2.   3.   4.   5.   6.   7.   8.   9.  10.  11.  12.  13.  14.  15.  16.  17.  18.  19.  20.
(PID.TID 0000.0001)  Sum Levels:  21.  22.  23.  24.  25.  26.  27.  28.  29.  30.  31.  32.  33.  34.  35.  36.  37.  38.  39.  40.
(PID.TID 0000.0001)  Sum Levels:  41.  42.  43.  44.  45.  46.  47.  48.  49.  50.
(PID.TID 0000.0001) DIAGNOSTICS_SET_POINTERS: Set levels for Outp.Stream: diags/budg2d_zflux_set1
(PID.TID 0000.0001)  Levels:       1.
(PID.TID 0000.0001) DIAGNOSTICS_SET_POINTERS: Set levels for Outp.Stream: diags/budg2d_hflux_set1
(PID.TID 0000.0001)  Sum Levels:   1.   2.   3.   4.   5.   6.   7.   8.   9.  10.  11.  12.  13.  14.  15.  16.  17.  18.  19.  20.
(PID.TID 0000.0001)  Sum Levels:  21.  22.  23.  24.  25.  26.  27.  28.  29.  30.  31.  32.  33.  34.  35.  36.  37.  38.  39.  40.
(PID.TID 0000.0001)  Sum Levels:  41.  42.  43.  44.  45.  46.  47.  48.  49.  50.
(PID.TID 0000.0001) DIAGNOSTICS_SET_POINTERS: Set levels for Outp.Stream: diags/budg2d_hflux_set2
(PID.TID 0000.0001)  Levels:       1.
(PID.TID 0000.0001) DIAGNOSTICS_SET_POINTERS: Set levels for Outp.Stream: diags/exf_zflux_set1
(PID.TID 0000.0001)  Levels:       1.
(PID.TID 0000.0001) DIAGNOSTICS_SET_POINTERS: done
(PID.TID 0000.0001) ------------------------------------------------------------
(PID.TID 0000.0001) DIAGSTATS_SET_REGIONS: define   0 regions:
(PID.TID 0000.0001) ------------------------------------------------------------
(PID.TID 0000.0001)   space allocated for all stats-diags:       0 levels
(PID.TID 0000.0001) DIAGSTATS_SET_POINTERS: done
(PID.TID 0000.0001) ------------------------------------------------------------
(PID.TID 0000.0001) INI_GLOBAL_DOMAIN: Found  19 CS-corner Pts in the domain
(PID.TID 0000.0001) %MON fCori_max                    =   1.4574827780704E-04
(PID.TID 0000.0001) %MON fCori_min                    =  -1.4574827780704E-04
(PID.TID 0000.0001) %MON fCori_mean                   =   1.1293772630057E-21
(PID.TID 0000.0001) %MON fCori_sd                     =   8.4202189509968E-05
(PID.TID 0000.0001) %MON fCoriG_max                   =   1.4584247033981E-04
(PID.TID 0000.0001) %MON fCoriG_min                   =  -1.4584247033981E-04
(PID.TID 0000.0001) %MON fCoriG_mean                  =   1.4117215787572E-20
(PID.TID 0000.0001) %MON fCoriG_sd                    =   8.4202189509968E-05
(PID.TID 0000.0001) %MON fCoriCos_max                 =   1.4580166994612E-04
(PID.TID 0000.0001) %MON fCoriCos_min                 =   5.2407700865903E-06
(PID.TID 0000.0001) %MON fCoriCos_mean                =   1.1514045869113E-04
(PID.TID 0000.0001) %MON fCoriCos_sd                  =   3.0375849106513E-05
(PID.TID 0000.0001) INI_CG2D: CG2D normalisation factor =  1.6658494934563737E-04
(PID.TID 0000.0001) INI_CG2D: cg2dTolerance = 6.735339303927341E-05 (Area=3.6388673751E+14)
(PID.TID 0000.0001) 
(PID.TID 0000.0001) // =======================================================
(PID.TID 0000.0001) // Model configuration
(PID.TID 0000.0001) // =======================================================
(PID.TID 0000.0001) //
(PID.TID 0000.0001) // "Physical" paramters ( PARM01 in namelist )
(PID.TID 0000.0001) //
(PID.TID 0000.0001) buoyancyRelation = /* Type of relation to get Buoyancy */
(PID.TID 0000.0001)               'OCEANIC'
(PID.TID 0000.0001)     ;
(PID.TID 0000.0001) fluidIsAir   =  /* fluid major constituent is Air */
(PID.TID 0000.0001)                   F
(PID.TID 0000.0001)     ;
(PID.TID 0000.0001) fluidIsWater =  /* fluid major constituent is Water */
(PID.TID 0000.0001)                   T
(PID.TID 0000.0001)     ;
(PID.TID 0000.0001) usingPCoords =  /* use p (or p*) vertical coordinate */
(PID.TID 0000.0001)                   F
(PID.TID 0000.0001)     ;
(PID.TID 0000.0001) usingZCoords =  /* use z (or z*) vertical coordinate */
(PID.TID 0000.0001)                   T
(PID.TID 0000.0001)     ;
(PID.TID 0000.0001) tRef =   /* Reference temperature profile ( oC or K ) */
(PID.TID 0000.0001)     3 @  2.300000000000000E+01,             /* K =  1:  3 */
(PID.TID 0000.0001)     3 @  2.200000000000000E+01,             /* K =  4:  6 */
(PID.TID 0000.0001)                 2.100000000000000E+01,      /* K =  7 */
(PID.TID 0000.0001)     2 @  2.000000000000000E+01,             /* K =  8:  9 */
(PID.TID 0000.0001)                 1.900000000000000E+01,      /* K = 10 */
(PID.TID 0000.0001)     2 @  1.800000000000000E+01,             /* K = 11: 12 */
(PID.TID 0000.0001)                 1.700000000000000E+01,      /* K = 13 */
(PID.TID 0000.0001)     2 @  1.600000000000000E+01,             /* K = 14: 15 */
(PID.TID 0000.0001)                 1.500000000000000E+01,      /* K = 16 */
(PID.TID 0000.0001)                 1.400000000000000E+01,      /* K = 17 */
(PID.TID 0000.0001)                 1.300000000000000E+01,      /* K = 18 */
(PID.TID 0000.0001)                 1.200000000000000E+01,      /* K = 19 */
(PID.TID 0000.0001)                 1.100000000000000E+01,      /* K = 20 */
(PID.TID 0000.0001)     2 @  9.000000000000000E+00,             /* K = 21: 22 */
(PID.TID 0000.0001)                 8.000000000000000E+00,      /* K = 23 */
(PID.TID 0000.0001)                 7.000000000000000E+00,      /* K = 24 */
(PID.TID 0000.0001)     2 @  6.000000000000000E+00,             /* K = 25: 26 */
(PID.TID 0000.0001)     2 @  5.000000000000000E+00,             /* K = 27: 28 */
(PID.TID 0000.0001)     3 @  4.000000000000000E+00,             /* K = 29: 31 */
(PID.TID 0000.0001)     3 @  3.000000000000000E+00,             /* K = 32: 34 */
(PID.TID 0000.0001)     4 @  2.000000000000000E+00,             /* K = 35: 38 */
(PID.TID 0000.0001)    12 @  1.000000000000000E+00              /* K = 39: 50 */
(PID.TID 0000.0001)     ;
(PID.TID 0000.0001) sRef =   /* Reference salinity profile ( psu ) */
(PID.TID 0000.0001)    50 @  3.450000000000000E+01              /* K =  1: 50 */
(PID.TID 0000.0001)     ;
(PID.TID 0000.0001) viscAh  =   /* Lateral eddy viscosity ( m^2/s ) */
(PID.TID 0000.0001)                 1.000000000000000E+00
(PID.TID 0000.0001)     ;
(PID.TID 0000.0001) viscAhMax = /* Maximum lateral eddy viscosity ( m^2/s ) */
(PID.TID 0000.0001)                 1.000000000000000E+21
(PID.TID 0000.0001)     ;
(PID.TID 0000.0001) viscAhGrid = /* Grid dependent lateral eddy viscosity ( non-dim. ) */
(PID.TID 0000.0001)                 2.000000000000000E-02
(PID.TID 0000.0001)     ;
(PID.TID 0000.0001) useFullLeith = /* Use Full Form of Leith Viscosity on/off flag*/
(PID.TID 0000.0001)                   F
(PID.TID 0000.0001)     ;
(PID.TID 0000.0001) useStrainTensionVisc= /* Use StrainTension Form of Viscous Operator flag*/
(PID.TID 0000.0001)                   F
(PID.TID 0000.0001)     ;
(PID.TID 0000.0001) useAreaViscLength = /* Use area for visc length instead of geom. mean*/
(PID.TID 0000.0001)                   F
(PID.TID 0000.0001)     ;
(PID.TID 0000.0001) viscC2leith = /* Leith harmonic visc. factor (on grad(vort),non-dim.) */
(PID.TID 0000.0001)                 0.000000000000000E+00
(PID.TID 0000.0001)     ;
(PID.TID 0000.0001) viscC2leithD = /* Leith harmonic viscosity factor (on grad(div),non-dim.)*/
(PID.TID 0000.0001)                 0.000000000000000E+00
(PID.TID 0000.0001)     ;
(PID.TID 0000.0001) viscC2smag = /* Smagorinsky harmonic viscosity factor (non-dim.) */
(PID.TID 0000.0001)                 0.000000000000000E+00
(PID.TID 0000.0001)     ;
(PID.TID 0000.0001) viscA4  =   /* Lateral biharmonic viscosity ( m^4/s ) */
(PID.TID 0000.0001)                 0.000000000000000E+00
(PID.TID 0000.0001)     ;
(PID.TID 0000.0001) viscA4Max = /* Maximum biharmonic viscosity ( m^2/s ) */
(PID.TID 0000.0001)                 1.000000000000000E+21
(PID.TID 0000.0001)     ;
(PID.TID 0000.0001) viscA4Grid = /* Grid dependent biharmonic viscosity ( non-dim. ) */
(PID.TID 0000.0001)                 0.000000000000000E+00
(PID.TID 0000.0001)     ;
(PID.TID 0000.0001) viscC4leith = /* Leith biharm viscosity factor (on grad(vort), non-dim.)*/
(PID.TID 0000.0001)                 0.000000000000000E+00
(PID.TID 0000.0001)     ;
(PID.TID 0000.0001) viscC4leithD = /* Leith biharm viscosity factor (on grad(div), non-dim.) */
(PID.TID 0000.0001)                 0.000000000000000E+00
(PID.TID 0000.0001)     ;
(PID.TID 0000.0001) viscC4Smag = /* Smagorinsky biharm viscosity factor (non-dim) */
(PID.TID 0000.0001)                 0.000000000000000E+00
(PID.TID 0000.0001)     ;
(PID.TID 0000.0001) no_slip_sides =  /* Viscous BCs: No-slip sides */
(PID.TID 0000.0001)                   T
(PID.TID 0000.0001)     ;
(PID.TID 0000.0001) sideDragFactor = /* side-drag scaling factor (non-dim) */
(PID.TID 0000.0001)                 2.000000000000000E+00
(PID.TID 0000.0001)     ;
(PID.TID 0000.0001) viscArNr = /* vertical profile of vertical viscosity ( m^2/s )*/
(PID.TID 0000.0001)    50 @  1.000000000000000E-03              /* K =  1: 50 */
(PID.TID 0000.0001)     ;
(PID.TID 0000.0001) no_slip_bottom =  /* Viscous BCs: No-slip bottom */
(PID.TID 0000.0001)                   T
(PID.TID 0000.0001)     ;
(PID.TID 0000.0001) bottomDragLinear = /* linear bottom-drag coefficient ( m/s ) */
(PID.TID 0000.0001)                 0.000000000000000E+00
(PID.TID 0000.0001)     ;
(PID.TID 0000.0001) bottomDragQuadratic = /* quadratic bottom-drag coefficient (-) */
(PID.TID 0000.0001)                 1.000000000000000E-03
(PID.TID 0000.0001)     ;
(PID.TID 0000.0001) diffKhT =   /* Laplacian diffusion of heat laterally ( m^2/s ) */
(PID.TID 0000.0001)                 1.000000000000000E+01
(PID.TID 0000.0001)     ;
(PID.TID 0000.0001) diffK4T =   /* Biharmonic diffusion of heat laterally ( m^4/s ) */
(PID.TID 0000.0001)                 0.000000000000000E+00
(PID.TID 0000.0001)     ;
(PID.TID 0000.0001) diffKhS =   /* Laplacian diffusion of salt laterally ( m^2/s ) */
(PID.TID 0000.0001)                 1.000000000000000E+01
(PID.TID 0000.0001)     ;
(PID.TID 0000.0001) diffK4S =   /* Biharmonic diffusion of salt laterally ( m^4/s ) */
(PID.TID 0000.0001)                 0.000000000000000E+00
(PID.TID 0000.0001)     ;
(PID.TID 0000.0001) diffKrNrT = /* vertical profile of vertical diffusion of Temp ( m^2/s )*/
(PID.TID 0000.0001)    50 @  1.000000000000000E-05              /* K =  1: 50 */
(PID.TID 0000.0001)     ;
(PID.TID 0000.0001) diffKrNrS = /* vertical profile of vertical diffusion of Salt ( m^2/s )*/
(PID.TID 0000.0001)    50 @  1.000000000000000E-05              /* K =  1: 50 */
(PID.TID 0000.0001)     ;
(PID.TID 0000.0001) diffKrBL79surf = /* Surface diffusion for Bryan and Lewis 79 ( m^2/s ) */
(PID.TID 0000.0001)                 0.000000000000000E+00
(PID.TID 0000.0001)     ;
(PID.TID 0000.0001) diffKrBL79deep = /* Deep diffusion for Bryan and Lewis 1979 ( m^2/s ) */
(PID.TID 0000.0001)                 0.000000000000000E+00
(PID.TID 0000.0001)     ;
(PID.TID 0000.0001) diffKrBL79scl = /* Depth scale for Bryan and Lewis 1979 ( m ) */
(PID.TID 0000.0001)                 2.000000000000000E+02
(PID.TID 0000.0001)     ;
(PID.TID 0000.0001) diffKrBL79Ho = /* Turning depth for Bryan and Lewis 1979 ( m ) */
(PID.TID 0000.0001)                -2.000000000000000E+03
(PID.TID 0000.0001)     ;
(PID.TID 0000.0001) ivdc_kappa = /* Implicit Vertical Diffusivity for Convection ( m^2/s) */
(PID.TID 0000.0001)                 1.000000000000000E+01
(PID.TID 0000.0001)     ;
(PID.TID 0000.0001) hMixCriteria=  /* Criteria for mixed-layer diagnostic */
(PID.TID 0000.0001)                -8.000000000000000E-01
(PID.TID 0000.0001)     ;
(PID.TID 0000.0001) dRhoSmall =  /* Parameter for mixed-layer diagnostic */
(PID.TID 0000.0001)                 1.000000000000000E-06
(PID.TID 0000.0001)     ;
(PID.TID 0000.0001) hMixSmooth=  /* Smoothing parameter for mixed-layer diagnostic */
(PID.TID 0000.0001)                 0.000000000000000E+00
(PID.TID 0000.0001)     ;
(PID.TID 0000.0001) eosType =  /* Type of Equation of State */
(PID.TID 0000.0001)               'JMD95Z'
(PID.TID 0000.0001)     ;
(PID.TID 0000.0001) celsius2K = /* 0 degree Celsius converted to Kelvin ( K ) */
(PID.TID 0000.0001)                 2.731500000000000E+02
(PID.TID 0000.0001)     ;
(PID.TID 0000.0001) rhoConst  = /* Reference density (Boussinesq)  ( kg/m^3 ) */
(PID.TID 0000.0001)                 1.029000000000000E+03
(PID.TID 0000.0001)     ;
(PID.TID 0000.0001) rhoFacC = /* normalized Reference density @ cell-Center (-) */
(PID.TID 0000.0001)    50 @  1.000000000000000E+00              /* K =  1: 50 */
(PID.TID 0000.0001)     ;
(PID.TID 0000.0001) rhoFacF = /* normalized Reference density @ W-Interface (-) */
(PID.TID 0000.0001)    51 @  1.000000000000000E+00              /* K =  1: 51 */
(PID.TID 0000.0001)     ;
(PID.TID 0000.0001) rhoConstFresh = /* Fresh-water reference density ( kg/m^3 ) */
(PID.TID 0000.0001)                 1.000000000000000E+03
(PID.TID 0000.0001)     ;
(PID.TID 0000.0001) gravity =   /* Gravitational acceleration ( m/s^2 ) */
(PID.TID 0000.0001)                 9.810000000000000E+00
(PID.TID 0000.0001)     ;
(PID.TID 0000.0001) gBaro =   /* Barotropic gravity ( m/s^2 ) */
(PID.TID 0000.0001)                 9.810000000000000E+00
(PID.TID 0000.0001)     ;
(PID.TID 0000.0001) rotationPeriod =   /* Rotation Period ( s ) */
(PID.TID 0000.0001)                 8.616400000000000E+04
(PID.TID 0000.0001)     ;
(PID.TID 0000.0001) omega =   /* Angular velocity ( rad/s ) */
(PID.TID 0000.0001)                 7.292123516990375E-05
(PID.TID 0000.0001)     ;
(PID.TID 0000.0001) f0 =   /* Reference coriolis parameter ( 1/s ) */
(PID.TID 0000.0001)                 1.000000000000000E-04
(PID.TID 0000.0001)     ;
(PID.TID 0000.0001) beta =   /* Beta ( 1/(m.s) ) */
(PID.TID 0000.0001)                 9.999999999999999E-12
(PID.TID 0000.0001)     ;
(PID.TID 0000.0001) fPrime =   /* Second coriolis parameter ( 1/s ) */
(PID.TID 0000.0001)                 0.000000000000000E+00
(PID.TID 0000.0001)     ;
(PID.TID 0000.0001) rigidLid =   /* Rigid lid on/off flag */
(PID.TID 0000.0001)                   F
(PID.TID 0000.0001)     ;
(PID.TID 0000.0001) implicitFreeSurface =   /* Implicit free surface on/off flag */
(PID.TID 0000.0001)                   T
(PID.TID 0000.0001)     ;
(PID.TID 0000.0001) freeSurfFac =   /* Implicit free surface factor */
(PID.TID 0000.0001)                 1.000000000000000E+00
(PID.TID 0000.0001)     ;
(PID.TID 0000.0001) implicSurfPress =  /* Surface Pressure implicit factor (0-1)*/
(PID.TID 0000.0001)                 1.000000000000000E+00
(PID.TID 0000.0001)     ;
(PID.TID 0000.0001) implicDiv2Dflow =  /* Barot. Flow Div. implicit factor (0-1)*/
(PID.TID 0000.0001)                 1.000000000000000E+00
(PID.TID 0000.0001)     ;
(PID.TID 0000.0001) uniformLin_PhiSurf = /* use uniform Bo_surf on/off flag*/
(PID.TID 0000.0001)                   T
(PID.TID 0000.0001)     ;
(PID.TID 0000.0001) uniformFreeSurfLev = /* free-surface level-index is uniform */
(PID.TID 0000.0001)                   T
(PID.TID 0000.0001)     ;
(PID.TID 0000.0001) hFacMin =   /* minimum partial cell factor (hFac) */
(PID.TID 0000.0001)                 2.000000000000000E-01
(PID.TID 0000.0001)     ;
(PID.TID 0000.0001) hFacMinDr = /* minimum partial cell thickness ( m) */
(PID.TID 0000.0001)                 2.000000000000000E-01
(PID.TID 0000.0001)     ;
(PID.TID 0000.0001) exactConserv =  /* Exact Volume Conservation on/off flag*/
(PID.TID 0000.0001)                   T
(PID.TID 0000.0001)     ;
(PID.TID 0000.0001) linFSConserveTr = /* Tracer correction for Lin Free Surface on/off flag*/
(PID.TID 0000.0001)                   F
(PID.TID 0000.0001)     ;
(PID.TID 0000.0001) nonlinFreeSurf = /* Non-linear Free Surf. options (-1,0,1,2,3)*/
(PID.TID 0000.0001)                       2
(PID.TID 0000.0001)      -1,0= Off ; 1,2,3= On, 2=+rescale gU,gV, 3=+update cg2d solv.
(PID.TID 0000.0001)     ;
(PID.TID 0000.0001) hFacInf =   /* lower threshold for hFac (nonlinFreeSurf only)*/
(PID.TID 0000.0001)                 2.000000000000000E-01
(PID.TID 0000.0001)     ;
(PID.TID 0000.0001) hFacSup =   /* upper threshold for hFac (nonlinFreeSurf only)*/
(PID.TID 0000.0001)                 2.000000000000000E+00
(PID.TID 0000.0001)     ;
(PID.TID 0000.0001) select_rStar = /* r* Vertical coord. options (=0 r coord.; >0 uses r*)*/
(PID.TID 0000.0001)                       2
(PID.TID 0000.0001)     ;
(PID.TID 0000.0001) useRealFreshWaterFlux = /* Real Fresh Water Flux on/off flag*/
(PID.TID 0000.0001)                   T
(PID.TID 0000.0001)     ;
(PID.TID 0000.0001) temp_EvPrRn = /* Temp. of Evap/Prec/R (UNSET=use local T)(oC)*/
(PID.TID 0000.0001)                 1.234567000000000E+05
(PID.TID 0000.0001)     ;
(PID.TID 0000.0001) salt_EvPrRn = /* Salin. of Evap/Prec/R (UNSET=use local S)(psu)*/
(PID.TID 0000.0001)                 0.000000000000000E+00
(PID.TID 0000.0001)     ;
(PID.TID 0000.0001) selectAddFluid = /* option for mass source/sink of fluid (=0: off) */
(PID.TID 0000.0001)                       0
(PID.TID 0000.0001)     ;
(PID.TID 0000.0001) temp_addMass = /* Temp. of addMass array (UNSET=use local T)(oC)*/
(PID.TID 0000.0001)                 1.234567000000000E+05
(PID.TID 0000.0001)     ;
(PID.TID 0000.0001) salt_addMass = /* Salin. of addMass array (UNSET=use local S)(psu)*/
(PID.TID 0000.0001)                 0.000000000000000E+00
(PID.TID 0000.0001)     ;
(PID.TID 0000.0001) use3Dsolver = /* use 3-D pressure solver on/off flag */
(PID.TID 0000.0001)                   F
(PID.TID 0000.0001)     ;
(PID.TID 0000.0001) nonHydrostatic =  /* Non-Hydrostatic on/off flag */
(PID.TID 0000.0001)                   F
(PID.TID 0000.0001)     ;
(PID.TID 0000.0001) nh_Am2 = /* Non-Hydrostatic terms scaling factor */
(PID.TID 0000.0001)                 1.000000000000000E+00
(PID.TID 0000.0001)     ;
(PID.TID 0000.0001) implicitNHPress = /* Non-Hyd Pressure implicit factor (0-1)*/
(PID.TID 0000.0001)                 1.000000000000000E+00
(PID.TID 0000.0001)     ;
(PID.TID 0000.0001) selectNHfreeSurf = /* Non-Hyd (free-)Surface option */
(PID.TID 0000.0001)                       0
(PID.TID 0000.0001)     ;
(PID.TID 0000.0001) quasiHydrostatic = /* Quasi-Hydrostatic on/off flag */
(PID.TID 0000.0001)                   F
(PID.TID 0000.0001)     ;
(PID.TID 0000.0001) calc_wVelocity = /* vertical velocity calculation on/off flag */
(PID.TID 0000.0001)                   T
(PID.TID 0000.0001)     ;
(PID.TID 0000.0001) momStepping =  /* Momentum equation on/off flag */
(PID.TID 0000.0001)                   T
(PID.TID 0000.0001)     ;
(PID.TID 0000.0001) vectorInvariantMomentum= /* Vector-Invariant Momentum on/off */
(PID.TID 0000.0001)                   T
(PID.TID 0000.0001)     ;
(PID.TID 0000.0001) momAdvection =  /* Momentum advection on/off flag */
(PID.TID 0000.0001)                   T
(PID.TID 0000.0001)     ;
(PID.TID 0000.0001) momViscosity =  /* Momentum viscosity on/off flag */
(PID.TID 0000.0001)                   T
(PID.TID 0000.0001)     ;
(PID.TID 0000.0001) momImplVertAdv= /* Momentum implicit vert. advection on/off*/
(PID.TID 0000.0001)                   F
(PID.TID 0000.0001)     ;
(PID.TID 0000.0001) implicitViscosity = /* Implicit viscosity on/off flag */
(PID.TID 0000.0001)                   T
(PID.TID 0000.0001)     ;
(PID.TID 0000.0001) metricTerms =  /* metric-Terms on/off flag */
(PID.TID 0000.0001)                   F
(PID.TID 0000.0001)     ;
(PID.TID 0000.0001) useNHMTerms = /* Non-Hydrostatic Metric-Terms on/off */
(PID.TID 0000.0001)                   F
(PID.TID 0000.0001)     ;
(PID.TID 0000.0001) selectCoriMap = /* Coriolis Map options (0,1,2,3)*/
(PID.TID 0000.0001)                       2
(PID.TID 0000.0001)     0= f-Plane ; 1= Beta-Plane ; 2= Spherical ; 3= read from file
(PID.TID 0000.0001)     ;
(PID.TID 0000.0001) use3dCoriolis = /* 3-D Coriolis on/off flag */
(PID.TID 0000.0001)                   F
(PID.TID 0000.0001)     ;
(PID.TID 0000.0001) useCoriolis =  /* Coriolis on/off flag */
(PID.TID 0000.0001)                   T
(PID.TID 0000.0001)     ;
(PID.TID 0000.0001) useCDscheme =  /* CD scheme on/off flag */
(PID.TID 0000.0001)                   F
(PID.TID 0000.0001)     ;
(PID.TID 0000.0001) useEnergyConservingCoriolis= /* Flx-Form Coriolis scheme flag */
(PID.TID 0000.0001)                   F
(PID.TID 0000.0001)     ;
(PID.TID 0000.0001) useJamartWetPoints= /* Coriolis WetPoints method flag */
(PID.TID 0000.0001)                   T
(PID.TID 0000.0001)     ;
(PID.TID 0000.0001) useJamartMomAdv= /* V.I Non-linear terms Jamart flag */
(PID.TID 0000.0001)                   F
(PID.TID 0000.0001)     ;
(PID.TID 0000.0001) useAbsVorticity= /* V.I Works with f+zeta in Coriolis */
(PID.TID 0000.0001)                   F
(PID.TID 0000.0001)     ;
(PID.TID 0000.0001) selectVortScheme= /* V.I Scheme selector for Vorticity-Term */
(PID.TID 0000.0001)                       1
(PID.TID 0000.0001)    = 0 : enstrophy (Shallow-Water Eq.) conserving scheme by Sadourny, JAS 75
(PID.TID 0000.0001)    = 1 : same as 0 with modified hFac
(PID.TID 0000.0001)    = 2 : energy conserving scheme (used by Sadourny in JAS 75 paper)
(PID.TID 0000.0001)    = 3 : energy (general) and enstrophy (2D, nonDiv.) conserving scheme
(PID.TID 0000.0001)          from Sadourny (Burridge & Haseler, ECMWF Rep.4, 1977)
(PID.TID 0000.0001)     ;
(PID.TID 0000.0001) upwindVorticity= /* V.I Upwind bias vorticity flag */
(PID.TID 0000.0001)                   F
(PID.TID 0000.0001)     ;
(PID.TID 0000.0001) highOrderVorticity= /* V.I High order vort. advect. flag */
(PID.TID 0000.0001)                   F
(PID.TID 0000.0001)     ;
(PID.TID 0000.0001) upwindShear= /* V.I Upwind vertical Shear advection flag */
(PID.TID 0000.0001)                   F
(PID.TID 0000.0001)     ;
(PID.TID 0000.0001) selectKEscheme= /* V.I Kinetic Energy scheme selector */
(PID.TID 0000.0001)                       0
(PID.TID 0000.0001)     ;
(PID.TID 0000.0001) momForcing =  /* Momentum forcing on/off flag */
(PID.TID 0000.0001)                   T
(PID.TID 0000.0001)     ;
(PID.TID 0000.0001) momPressureForcing =  /* Momentum pressure term on/off flag */
(PID.TID 0000.0001)                   T
(PID.TID 0000.0001)     ;
(PID.TID 0000.0001) implicitIntGravWave= /* Implicit Internal Gravity Wave flag */
(PID.TID 0000.0001)                   F
(PID.TID 0000.0001)     ;
(PID.TID 0000.0001) staggerTimeStep =    /* Stagger time stepping on/off flag */
(PID.TID 0000.0001)                   T
(PID.TID 0000.0001)     ;
(PID.TID 0000.0001) doResetHFactors = /* reset thickness factors @ each time-step */
(PID.TID 0000.0001)                   T
(PID.TID 0000.0001)     ;
(PID.TID 0000.0001) multiDimAdvection =  /* enable/disable Multi-Dim Advection */
(PID.TID 0000.0001)                   T
(PID.TID 0000.0001)     ;
(PID.TID 0000.0001) useMultiDimAdvec =   /* Multi-Dim Advection is/is-not used */
(PID.TID 0000.0001)                   T
(PID.TID 0000.0001)     ;
(PID.TID 0000.0001) implicitDiffusion = /* Implicit Diffusion on/off flag */
(PID.TID 0000.0001)                   T
(PID.TID 0000.0001)     ;
(PID.TID 0000.0001) tempStepping =  /* Temperature equation on/off flag */
(PID.TID 0000.0001)                   T
(PID.TID 0000.0001)     ;
(PID.TID 0000.0001) tempAdvection = /* Temperature advection on/off flag */
(PID.TID 0000.0001)                   T
(PID.TID 0000.0001)     ;
(PID.TID 0000.0001) tempImplVertAdv = /* Temp. implicit vert. advection on/off */
(PID.TID 0000.0001)                   T
(PID.TID 0000.0001)     ;
(PID.TID 0000.0001) tempForcing  =  /* Temperature forcing on/off flag */
(PID.TID 0000.0001)                   T
(PID.TID 0000.0001)     ;
(PID.TID 0000.0001) balanceQnet  =  /* balance net heat-flux on/off flag */
(PID.TID 0000.0001)                   T
(PID.TID 0000.0001)     ;
(PID.TID 0000.0001) doThetaClimRelax = /* apply SST relaxation on/off flag */
(PID.TID 0000.0001)                   F
(PID.TID 0000.0001)     ;
(PID.TID 0000.0001) balanceThetaClimRelax= /* balance SST relaxation on/off flag */
(PID.TID 0000.0001)                   T
(PID.TID 0000.0001)     ;
(PID.TID 0000.0001) tempIsActiveTr = /* Temp. is a dynamically Active Tracer */
(PID.TID 0000.0001)                   T
(PID.TID 0000.0001)     ;
(PID.TID 0000.0001) saltStepping =  /* Salinity equation on/off flag */
(PID.TID 0000.0001)                   T
(PID.TID 0000.0001)     ;
(PID.TID 0000.0001) saltAdvection = /* Salinity advection on/off flag */
(PID.TID 0000.0001)                   T
(PID.TID 0000.0001)     ;
(PID.TID 0000.0001) saltImplVertAdv = /* Sali. implicit vert. advection on/off */
(PID.TID 0000.0001)                   T
(PID.TID 0000.0001)     ;
(PID.TID 0000.0001) saltForcing  =  /* Salinity forcing on/off flag */
(PID.TID 0000.0001)                   T
(PID.TID 0000.0001)     ;
(PID.TID 0000.0001) balanceEmPmR =  /* balance net fresh-water flux on/off flag */
(PID.TID 0000.0001)                   T
(PID.TID 0000.0001)     ;
(PID.TID 0000.0001) doSaltClimRelax = /* apply SSS relaxation on/off flag */
(PID.TID 0000.0001)                   F
(PID.TID 0000.0001)     ;
(PID.TID 0000.0001) balanceSaltClimRelax= /* balance SSS relaxation on/off flag */
(PID.TID 0000.0001)                   T
(PID.TID 0000.0001)     ;
(PID.TID 0000.0001) saltIsActiveTr = /* Salt  is a dynamically Active Tracer */
(PID.TID 0000.0001)                   T
(PID.TID 0000.0001)     ;
(PID.TID 0000.0001)  readBinaryPrec = /* Precision used for reading binary files */
(PID.TID 0000.0001)                      32
(PID.TID 0000.0001)     ;
(PID.TID 0000.0001) writeBinaryPrec = /* Precision used for writing binary files */
(PID.TID 0000.0001)                      32
(PID.TID 0000.0001)     ;
(PID.TID 0000.0001)  globalFiles = /* write "global" (=not per tile) files */
(PID.TID 0000.0001)                   F
(PID.TID 0000.0001)     ;
(PID.TID 0000.0001)  useSingleCpuIO = /* only master MPI process does I/O */
(PID.TID 0000.0001)                   T
(PID.TID 0000.0001)     ;
(PID.TID 0000.0001) /* debLev[*]  : level of debug & auxiliary message printing */
(PID.TID 0000.0001) debLevZero =  0 ; /* level of disabled aux. msg printing */
(PID.TID 0000.0001)    debLevA =  1 ; /* level of minimum  aux. msg printing */
(PID.TID 0000.0001)    debLevB =  2 ; /* level of low aux. print (report read-file opening)*/
(PID.TID 0000.0001)    debLevC =  3 ; /* level of moderate debug prt (most pkgs debug msg) */
(PID.TID 0000.0001)    debLevD =  4 ; /* level of enhanced debug prt (add DEBUG_STATS prt) */
(PID.TID 0000.0001)    debLevE =  5 ; /* level of extensive debug printing */
(PID.TID 0000.0001) debugLevel =  /* select debug printing level */
(PID.TID 0000.0001)                       1
(PID.TID 0000.0001)     ;
(PID.TID 0000.0001) //
(PID.TID 0000.0001) // Elliptic solver(s) paramters ( PARM02 in namelist )
(PID.TID 0000.0001) //
(PID.TID 0000.0001) cg2dMaxIters =   /* Upper limit on 2d con. grad iterations  */
(PID.TID 0000.0001)                     300
(PID.TID 0000.0001)     ;
(PID.TID 0000.0001) cg2dChkResFreq =   /* 2d con. grad convergence test frequency */
(PID.TID 0000.0001)                       1
(PID.TID 0000.0001)     ;
(PID.TID 0000.0001) cg2dTargetResidual =   /* 2d con. grad target residual  */
(PID.TID 0000.0001)                 1.000000000000000E-07
(PID.TID 0000.0001)     ;
(PID.TID 0000.0001) cg2dTargetResWunit =   /* CG2d target residual [W units] */
(PID.TID 0000.0001)                 1.000000000000000E-12
(PID.TID 0000.0001)     ;
(PID.TID 0000.0001) cg2dPreCondFreq =   /* Freq. for updating cg2d preconditioner */
(PID.TID 0000.0001)                       1
(PID.TID 0000.0001)     ;
(PID.TID 0000.0001) useSRCGSolver =  /* use single reduction CG solver(s) */
(PID.TID 0000.0001)                   F
(PID.TID 0000.0001)     ;
(PID.TID 0000.0001) printResidualFreq = /* Freq. for printing CG residual */
(PID.TID 0000.0001)                       0
(PID.TID 0000.0001)     ;
(PID.TID 0000.0001) //
(PID.TID 0000.0001) // Time stepping paramters ( PARM03 in namelist )
(PID.TID 0000.0001) //
(PID.TID 0000.0001) deltaTMom =   /* Momentum equation timestep ( s ) */
(PID.TID 0000.0001)                 9.000000000000000E+02
(PID.TID 0000.0001)     ;
(PID.TID 0000.0001) deltaTFreeSurf = /* FreeSurface equation timestep ( s ) */
(PID.TID 0000.0001)                 4.320000000000000E+04
(PID.TID 0000.0001)     ;
(PID.TID 0000.0001) dTtracerLev =  /* Tracer equation timestep ( s ) */
(PID.TID 0000.0001)    50 @  4.320000000000000E+04              /* K =  1: 50 */
(PID.TID 0000.0001)     ;
(PID.TID 0000.0001) deltaTClock  =   /* Model clock timestep ( s ) */
(PID.TID 0000.0001)                 4.320000000000000E+04
(PID.TID 0000.0001)     ;
(PID.TID 0000.0001) cAdjFreq =   /* Convective adjustment interval ( s ) */
(PID.TID 0000.0001)                 0.000000000000000E+00
(PID.TID 0000.0001)     ;
(PID.TID 0000.0001) momForcingOutAB = /* =1: take Momentum Forcing out of Adams-Bash. stepping */
(PID.TID 0000.0001)                       1
(PID.TID 0000.0001)     ;
(PID.TID 0000.0001) tracForcingOutAB = /* =1: take T,S,pTr Forcing out of Adams-Bash. stepping */
(PID.TID 0000.0001)                       1
(PID.TID 0000.0001)     ;
(PID.TID 0000.0001) momDissip_In_AB = /* put Dissipation Tendency in Adams-Bash. stepping */
(PID.TID 0000.0001)                   F
(PID.TID 0000.0001)     ;
(PID.TID 0000.0001) doAB_onGtGs = /* apply AB on Tendencies (rather than on T,S)*/
(PID.TID 0000.0001)                   F
(PID.TID 0000.0001)     ;
(PID.TID 0000.0001) abEps =   /* Adams-Bashforth-2 stabilizing weight */
(PID.TID 0000.0001)                 1.000000000000000E-02
(PID.TID 0000.0001)     ;
(PID.TID 0000.0001) alph_AB =   /* Adams-Bashforth-3 primary factor */
(PID.TID 0000.0001)                 5.000000000000000E-01
(PID.TID 0000.0001)     ;
(PID.TID 0000.0001) beta_AB =   /* Adams-Bashforth-3 secondary factor */
(PID.TID 0000.0001)                 2.811050000000000E-01
(PID.TID 0000.0001)     ;
(PID.TID 0000.0001) startFromPickupAB2= /* start from AB-2 pickup */
(PID.TID 0000.0001)                   F
(PID.TID 0000.0001)     ;
(PID.TID 0000.0001) pickupStrictlyMatch= /* stop if pickup do not strictly match */
(PID.TID 0000.0001)                   F
(PID.TID 0000.0001)     ;
(PID.TID 0000.0001) nIter0   =   /* Run starting timestep number */
(PID.TID 0000.0001)                       0
(PID.TID 0000.0001)     ;
(PID.TID 0000.0001) nTimeSteps = /* Number of timesteps */
(PID.TID 0000.0001)                       8
(PID.TID 0000.0001)     ;
(PID.TID 0000.0001) nEndIter =   /* Run ending timestep number */
(PID.TID 0000.0001)                       8
(PID.TID 0000.0001)     ;
(PID.TID 0000.0001) baseTime =   /* Model base time ( s ) */
(PID.TID 0000.0001)                 0.000000000000000E+00
(PID.TID 0000.0001)     ;
(PID.TID 0000.0001) startTime =  /* Run start time ( s ) */
(PID.TID 0000.0001)                 0.000000000000000E+00
(PID.TID 0000.0001)     ;
(PID.TID 0000.0001) endTime  =   /* Integration ending time ( s ) */
(PID.TID 0000.0001)                 3.456000000000000E+05
(PID.TID 0000.0001)     ;
(PID.TID 0000.0001) pChkPtFreq = /* Permanent restart/pickup file interval ( s ) */
(PID.TID 0000.0001)                 3.153600000000000E+07
(PID.TID 0000.0001)     ;
(PID.TID 0000.0001) chkPtFreq  = /* Rolling restart/pickup file interval ( s ) */
(PID.TID 0000.0001)                 3.153600000000000E+07
(PID.TID 0000.0001)     ;
(PID.TID 0000.0001) pickup_write_mdsio =   /* Model IO flag. */
(PID.TID 0000.0001)                   T
(PID.TID 0000.0001)     ;
(PID.TID 0000.0001) pickup_read_mdsio =   /* Model IO flag. */
(PID.TID 0000.0001)                   T
(PID.TID 0000.0001)     ;
(PID.TID 0000.0001) pickup_write_immed =   /* Model IO flag. */
(PID.TID 0000.0001)                   F
(PID.TID 0000.0001)     ;
(PID.TID 0000.0001) writePickupAtEnd =   /* Model IO flag. */
(PID.TID 0000.0001)                   T
(PID.TID 0000.0001)     ;
(PID.TID 0000.0001) dumpFreq =   /* Model state write out interval ( s ). */
(PID.TID 0000.0001)                 0.000000000000000E+00
(PID.TID 0000.0001)     ;
(PID.TID 0000.0001) dumpInitAndLast= /* write out Initial & Last iter. model state */
(PID.TID 0000.0001)                   T
(PID.TID 0000.0001)     ;
(PID.TID 0000.0001) snapshot_mdsio =   /* Model IO flag. */
(PID.TID 0000.0001)                   T
(PID.TID 0000.0001)     ;
(PID.TID 0000.0001) monitorFreq =   /* Monitor output interval ( s ). */
(PID.TID 0000.0001)                 8.640000000000000E+04
(PID.TID 0000.0001)     ;
(PID.TID 0000.0001) monitorSelect = /* select group of variables to monitor */
(PID.TID 0000.0001)                       3
(PID.TID 0000.0001)     ;
(PID.TID 0000.0001) monitor_stdio =   /* Model IO flag. */
(PID.TID 0000.0001)                   T
(PID.TID 0000.0001)     ;
(PID.TID 0000.0001) externForcingPeriod =   /* forcing period (s) */
(PID.TID 0000.0001)                 0.000000000000000E+00
(PID.TID 0000.0001)     ;
(PID.TID 0000.0001) externForcingCycle =   /* period of the cyle (s). */
(PID.TID 0000.0001)                 0.000000000000000E+00
(PID.TID 0000.0001)     ;
(PID.TID 0000.0001) tauThetaClimRelax =   /* relaxation time scale (s) */
(PID.TID 0000.0001)                 0.000000000000000E+00
(PID.TID 0000.0001)     ;
(PID.TID 0000.0001) tauSaltClimRelax =   /* relaxation time scale (s) */
(PID.TID 0000.0001)                 0.000000000000000E+00
(PID.TID 0000.0001)     ;
(PID.TID 0000.0001) latBandClimRelax =   /* max. Lat. where relaxation */
(PID.TID 0000.0001)                 1.800000000000000E+02
(PID.TID 0000.0001)     ;
(PID.TID 0000.0001) //
(PID.TID 0000.0001) // Gridding paramters ( PARM04 in namelist )
(PID.TID 0000.0001) //
(PID.TID 0000.0001) usingCartesianGrid = /* Cartesian coordinates flag ( True/False ) */
(PID.TID 0000.0001)                   F
(PID.TID 0000.0001)     ;
(PID.TID 0000.0001) usingCylindricalGrid = /* Cylindrical coordinates flag ( True/False ) */
(PID.TID 0000.0001)                   F
(PID.TID 0000.0001)     ;
(PID.TID 0000.0001) usingSphericalPolarGrid = /* Spherical coordinates flag ( True/False ) */
(PID.TID 0000.0001)                   F
(PID.TID 0000.0001)     ;
(PID.TID 0000.0001) usingCurvilinearGrid = /* Curvilinear coordinates flag ( True/False ) */
(PID.TID 0000.0001)                   T
(PID.TID 0000.0001)     ;
(PID.TID 0000.0001) selectSigmaCoord = /* Hybrid-Sigma Vert. Coordinate option */
(PID.TID 0000.0001)                       0
(PID.TID 0000.0001)     ;
(PID.TID 0000.0001) Ro_SeaLevel = /* r(1) ( units of r ==  m ) */
(PID.TID 0000.0001)                 0.000000000000000E+00
(PID.TID 0000.0001)     ;
(PID.TID 0000.0001) rSigmaBnd = /* r/sigma transition ( units of r ==  m ) */
(PID.TID 0000.0001)                 1.234567000000000E+05
(PID.TID 0000.0001)     ;
(PID.TID 0000.0001) rkSign =   /* index orientation relative to vertical coordinate */
(PID.TID 0000.0001)                -1.000000000000000E+00
(PID.TID 0000.0001)     ;
(PID.TID 0000.0001) gravitySign = /* gravity orientation relative to vertical coordinate */
(PID.TID 0000.0001)                -1.000000000000000E+00
(PID.TID 0000.0001)     ;
(PID.TID 0000.0001) mass2rUnit = /* convert mass per unit area [kg/m2] to r-units [m] */
(PID.TID 0000.0001)                 9.718172983479105E-04
(PID.TID 0000.0001)     ;
(PID.TID 0000.0001) rUnit2mass = /* convert r-units [m] to mass per unit area [kg/m2] */
(PID.TID 0000.0001)                 1.029000000000000E+03
(PID.TID 0000.0001)     ;
(PID.TID 0000.0001) drC =   /* C spacing ( units of r ) */
(PID.TID 0000.0001)                 5.000000000000000E+00,      /* K =  1 */
(PID.TID 0000.0001)     6 @  1.000000000000000E+01,             /* K =  2:  7 */
(PID.TID 0000.0001)                 1.000500000000000E+01,      /* K =  8 */
(PID.TID 0000.0001)                 1.002000000000000E+01,      /* K =  9 */
(PID.TID 0000.0001)                 1.007000000000000E+01,      /* K = 10 */
(PID.TID 0000.0001)                 1.021500000000000E+01,      /* K = 11 */
(PID.TID 0000.0001)                 1.056000000000000E+01,      /* K = 12 */
(PID.TID 0000.0001)                 1.128000000000000E+01,      /* K = 13 */
(PID.TID 0000.0001)                 1.259000000000000E+01,      /* K = 14 */
(PID.TID 0000.0001)                 1.473000000000000E+01,      /* K = 15 */
(PID.TID 0000.0001)                 1.793000000000000E+01,      /* K = 16 */
(PID.TID 0000.0001)                 2.233500000000000E+01,      /* K = 17 */
(PID.TID 0000.0001)                 2.797500000000000E+01,      /* K = 18 */
(PID.TID 0000.0001)                 3.476000000000001E+01,      /* K = 19 */
(PID.TID 0000.0001)                 4.246000000000000E+01,      /* K = 20 */
(PID.TID 0000.0001)                 5.075000000000000E+01,      /* K = 21 */
(PID.TID 0000.0001)                 5.925000000000000E+01,      /* K = 22 */
(PID.TID 0000.0001)                 6.753999999999999E+01,      /* K = 23 */
(PID.TID 0000.0001)                 7.524000000000001E+01,      /* K = 24 */
(PID.TID 0000.0001)                 8.202500000000001E+01,      /* K = 25 */
(PID.TID 0000.0001)                 8.766500000000001E+01,      /* K = 26 */
(PID.TID 0000.0001)                 9.206999999999999E+01,      /* K = 27 */
(PID.TID 0000.0001)                 9.527000000000000E+01,      /* K = 28 */
(PID.TID 0000.0001)                 9.741499999999999E+01,      /* K = 29 */
(PID.TID 0000.0001)                 9.875000000000000E+01,      /* K = 30 */
(PID.TID 0000.0001)                 9.963000000000000E+01,      /* K = 31 */
(PID.TID 0000.0001)                 1.006700000000000E+02,      /* K = 32 */
(PID.TID 0000.0001)                 1.029450000000000E+02,      /* K = 33 */
(PID.TID 0000.0001)                 1.079450000000000E+02,      /* K = 34 */
(PID.TID 0000.0001)                 1.170800000000000E+02,      /* K = 35 */
(PID.TID 0000.0001)                 1.309600000000000E+02,      /* K = 36 */
(PID.TID 0000.0001)                 1.490150000000000E+02,      /* K = 37 */
(PID.TID 0000.0001)                 1.698850000000000E+02,      /* K = 38 */
(PID.TID 0000.0001)                 1.921900000000000E+02,      /* K = 39 */
(PID.TID 0000.0001)                 2.150250000000000E+02,      /* K = 40 */
(PID.TID 0000.0001)                 2.380000000000000E+02,      /* K = 41 */
(PID.TID 0000.0001)                 2.610000000000000E+02,      /* K = 42 */
(PID.TID 0000.0001)                 2.840000000000000E+02,      /* K = 43 */
(PID.TID 0000.0001)                 3.070000000000000E+02,      /* K = 44 */
(PID.TID 0000.0001)                 3.300000000000000E+02,      /* K = 45 */
(PID.TID 0000.0001)                 3.530000000000000E+02,      /* K = 46 */
(PID.TID 0000.0001)                 3.760000000000000E+02,      /* K = 47 */
(PID.TID 0000.0001)                 3.990000000000000E+02,      /* K = 48 */
(PID.TID 0000.0001)                 4.220000000000000E+02,      /* K = 49 */
(PID.TID 0000.0001)                 4.450000000000000E+02       /* K = 50 */
(PID.TID 0000.0001)     ;
(PID.TID 0000.0001) drF =   /* W spacing ( units of r ) */
(PID.TID 0000.0001)     7 @  1.000000000000000E+01,             /* K =  1:  7 */
(PID.TID 0000.0001)                 1.001000000000000E+01,      /* K =  8 */
(PID.TID 0000.0001)                 1.003000000000000E+01,      /* K =  9 */
(PID.TID 0000.0001)                 1.011000000000000E+01,      /* K = 10 */
(PID.TID 0000.0001)                 1.032000000000000E+01,      /* K = 11 */
(PID.TID 0000.0001)                 1.080000000000000E+01,      /* K = 12 */
(PID.TID 0000.0001)                 1.176000000000000E+01,      /* K = 13 */
(PID.TID 0000.0001)                 1.342000000000000E+01,      /* K = 14 */
(PID.TID 0000.0001)                 1.604000000000000E+01,      /* K = 15 */
(PID.TID 0000.0001)                 1.982000000000000E+01,      /* K = 16 */
(PID.TID 0000.0001)                 2.485000000000000E+01,      /* K = 17 */
(PID.TID 0000.0001)                 3.110000000000000E+01,      /* K = 18 */
(PID.TID 0000.0001)                 3.842000000000000E+01,      /* K = 19 */
(PID.TID 0000.0001)                 4.650000000000000E+01,      /* K = 20 */
(PID.TID 0000.0001)                 5.500000000000000E+01,      /* K = 21 */
(PID.TID 0000.0001)                 6.350000000000000E+01,      /* K = 22 */
(PID.TID 0000.0001)                 7.158000000000000E+01,      /* K = 23 */
(PID.TID 0000.0001)                 7.890000000000001E+01,      /* K = 24 */
(PID.TID 0000.0001)                 8.515000000000001E+01,      /* K = 25 */
(PID.TID 0000.0001)                 9.018000000000001E+01,      /* K = 26 */
(PID.TID 0000.0001)                 9.395999999999999E+01,      /* K = 27 */
(PID.TID 0000.0001)                 9.658000000000000E+01,      /* K = 28 */
(PID.TID 0000.0001)                 9.825000000000000E+01,      /* K = 29 */
(PID.TID 0000.0001)                 9.925000000000000E+01,      /* K = 30 */
(PID.TID 0000.0001)                 1.000100000000000E+02,      /* K = 31 */
(PID.TID 0000.0001)                 1.013300000000000E+02,      /* K = 32 */
(PID.TID 0000.0001)                 1.045600000000000E+02,      /* K = 33 */
(PID.TID 0000.0001)                 1.113300000000000E+02,      /* K = 34 */
(PID.TID 0000.0001)                 1.228300000000000E+02,      /* K = 35 */
(PID.TID 0000.0001)                 1.390900000000000E+02,      /* K = 36 */
(PID.TID 0000.0001)                 1.589400000000000E+02,      /* K = 37 */
(PID.TID 0000.0001)                 1.808300000000000E+02,      /* K = 38 */
(PID.TID 0000.0001)                 2.035500000000000E+02,      /* K = 39 */
(PID.TID 0000.0001)                 2.265000000000000E+02,      /* K = 40 */
(PID.TID 0000.0001)                 2.495000000000000E+02,      /* K = 41 */
(PID.TID 0000.0001)                 2.725000000000000E+02,      /* K = 42 */
(PID.TID 0000.0001)                 2.955000000000000E+02,      /* K = 43 */
(PID.TID 0000.0001)                 3.185000000000000E+02,      /* K = 44 */
(PID.TID 0000.0001)                 3.415000000000000E+02,      /* K = 45 */
(PID.TID 0000.0001)                 3.645000000000000E+02,      /* K = 46 */
(PID.TID 0000.0001)                 3.875000000000000E+02,      /* K = 47 */
(PID.TID 0000.0001)                 4.105000000000000E+02,      /* K = 48 */
(PID.TID 0000.0001)                 4.335000000000000E+02,      /* K = 49 */
(PID.TID 0000.0001)                 4.565000000000000E+02       /* K = 50 */
(PID.TID 0000.0001)     ;
(PID.TID 0000.0001) radius_fromHorizGrid = /* sphere Radius of input horiz. grid */
(PID.TID 0000.0001)                 6.370000000000000E+06
(PID.TID 0000.0001)     ;
(PID.TID 0000.0001) rSphere =  /* Radius ( ignored - cartesian, m - spherical ) */
(PID.TID 0000.0001)                 6.370000000000000E+06
(PID.TID 0000.0001)     ;
(PID.TID 0000.0001) deepAtmosphere = /* Deep/Shallow Atmosphere flag (True/False) */
(PID.TID 0000.0001)                   F
(PID.TID 0000.0001)     ;
(PID.TID 0000.0001) xC =  /* xC(:,1,:,1) : P-point X coord ( deg. or m if cartesian) */
(PID.TID 0000.0001)                -4.439521994760536E+01,      /* I =  1 */
(PID.TID 0000.0001)                -4.295641272275883E+01,      /* I =  2 */
(PID.TID 0000.0001)                -4.122055553388957E+01,      /* I =  3 */
(PID.TID 0000.0001)      . . .
(PID.TID 0000.0001)                 1.312205555338896E+02,      /* I = 94 */
(PID.TID 0000.0001)                 1.329564127227588E+02,      /* I = 95 */
(PID.TID 0000.0001)                 1.343952199476053E+02,      /* I = 96 */
(PID.TID 0000.0001)                 4.635509675007168E+01,      /* I = 97 */
(PID.TID 0000.0001)                 4.906731228843647E+01,      /* I = 98 */
(PID.TID 0000.0001)                 5.178550688214704E+01,      /* I = 99 */
(PID.TID 0000.0001)      . . .
(PID.TID 0000.0001)                -1.778001716525716E+02,      /* I =190 */
(PID.TID 0000.0001)                -1.779288225675308E+02,      /* I =191 */
(PID.TID 0000.0001)                -1.780367200854751E+02,      /* I =192 */
(PID.TID 0000.0001)                 1.356047800523947E+02,      /* I =193 */
(PID.TID 0000.0001)                 1.358367907661329E+02,      /* I =194 */
(PID.TID 0000.0001)                 1.359720382181193E+02,      /* I =195 */
(PID.TID 0000.0001)      . . .
(PID.TID 0000.0001)                -1.340279617818807E+02,      /* I =286 */
(PID.TID 0000.0001)                -1.341632092338671E+02,      /* I =287 */
(PID.TID 0000.0001)                -1.343952199476053E+02,      /* I =288 */
(PID.TID 0000.0001)                -8.812739148696656E+01,      /* I =289 */
(PID.TID 0000.0001)                -8.820362659721324E+01,      /* I =290 */
(PID.TID 0000.0001)                -8.826768106944316E+01,      /* I =291 */
(PID.TID 0000.0001)      . . .
(PID.TID 0000.0001)                 8.780017165257156E+01,      /* I =382 */
(PID.TID 0000.0001)                 8.792882256753080E+01,      /* I =383 */
(PID.TID 0000.0001)                 8.803672008547504E+01       /* I =384 */
(PID.TID 0000.0001)     ;
(PID.TID 0000.0001) yC =  /* yC(1,:,1,:) : P-point Y coord ( deg. or m if cartesian) */
(PID.TID 0000.0001)                -3.497677942598243E+01,      /* J =  1 */
(PID.TID 0000.0001)                -3.374005967394886E+01,      /* J =  2 */
(PID.TID 0000.0001)                -3.220655175667454E+01,      /* J =  3 */
(PID.TID 0000.0001)                -3.045756348838641E+01,      /* J =  4 */
(PID.TID 0000.0001)                -2.853728129852918E+01,      /* J =  5 */
(PID.TID 0000.0001)                -2.647426640173173E+01,      /* J =  6 */
(PID.TID 0000.0001)                -2.428936657094636E+01,      /* J =  7 */
(PID.TID 0000.0001)                -2.199915808312262E+01,      /* J =  8 */
(PID.TID 0000.0001)                -1.961768597440146E+01,      /* J =  9 */
(PID.TID 0000.0001)                -1.715743888281371E+01,      /* J = 10 */
(PID.TID 0000.0001)                -1.462993396899330E+01,      /* J = 11 */
(PID.TID 0000.0001)                -1.204608340464756E+01,      /* J = 12 */
(PID.TID 0000.0001)                -9.416429130284818E+00,      /* J = 13 */
(PID.TID 0000.0001)                -6.751293662992216E+00,      /* J = 14 */
(PID.TID 0000.0001)                -4.060875511835959E+00,      /* J = 15 */
(PID.TID 0000.0001)                -1.355307764409121E+00       /* J = 16 */
(PID.TID 0000.0001)     ;
(PID.TID 0000.0001) rcoord = /* P-point R coordinate (  units of r ) */
(PID.TID 0000.0001)                -5.000000000000000E+00,      /* K =  1 */
(PID.TID 0000.0001)                -1.500000000000000E+01,      /* K =  2 */
(PID.TID 0000.0001)                -2.500000000000000E+01,      /* K =  3 */
(PID.TID 0000.0001)                -3.500000000000000E+01,      /* K =  4 */
(PID.TID 0000.0001)                -4.500000000000000E+01,      /* K =  5 */
(PID.TID 0000.0001)                -5.500000000000000E+01,      /* K =  6 */
(PID.TID 0000.0001)                -6.500000000000000E+01,      /* K =  7 */
(PID.TID 0000.0001)                -7.500500000000000E+01,      /* K =  8 */
(PID.TID 0000.0001)                -8.502499999999999E+01,      /* K =  9 */
(PID.TID 0000.0001)                -9.509500000000000E+01,      /* K = 10 */
(PID.TID 0000.0001)                -1.053100000000000E+02,      /* K = 11 */
(PID.TID 0000.0001)                -1.158700000000000E+02,      /* K = 12 */
(PID.TID 0000.0001)                -1.271500000000000E+02,      /* K = 13 */
(PID.TID 0000.0001)                -1.397400000000000E+02,      /* K = 14 */
(PID.TID 0000.0001)                -1.544700000000000E+02,      /* K = 15 */
(PID.TID 0000.0001)                -1.724000000000000E+02,      /* K = 16 */
(PID.TID 0000.0001)                -1.947350000000000E+02,      /* K = 17 */
(PID.TID 0000.0001)                -2.227100000000000E+02,      /* K = 18 */
(PID.TID 0000.0001)                -2.574700000000000E+02,      /* K = 19 */
(PID.TID 0000.0001)                -2.999300000000000E+02,      /* K = 20 */
(PID.TID 0000.0001)                -3.506800000000000E+02,      /* K = 21 */
(PID.TID 0000.0001)                -4.099300000000000E+02,      /* K = 22 */
(PID.TID 0000.0001)                -4.774700000000000E+02,      /* K = 23 */
(PID.TID 0000.0001)                -5.527100000000000E+02,      /* K = 24 */
(PID.TID 0000.0001)                -6.347350000000000E+02,      /* K = 25 */
(PID.TID 0000.0001)                -7.224000000000000E+02,      /* K = 26 */
(PID.TID 0000.0001)                -8.144700000000000E+02,      /* K = 27 */
(PID.TID 0000.0001)                -9.097400000000000E+02,      /* K = 28 */
(PID.TID 0000.0001)                -1.007155000000000E+03,      /* K = 29 */
(PID.TID 0000.0001)                -1.105905000000000E+03,      /* K = 30 */
(PID.TID 0000.0001)                -1.205535000000000E+03,      /* K = 31 */
(PID.TID 0000.0001)                -1.306205000000000E+03,      /* K = 32 */
(PID.TID 0000.0001)                -1.409150000000000E+03,      /* K = 33 */
(PID.TID 0000.0001)                -1.517095000000000E+03,      /* K = 34 */
(PID.TID 0000.0001)                -1.634175000000000E+03,      /* K = 35 */
(PID.TID 0000.0001)                -1.765135000000000E+03,      /* K = 36 */
(PID.TID 0000.0001)                -1.914150000000000E+03,      /* K = 37 */
(PID.TID 0000.0001)                -2.084035000000000E+03,      /* K = 38 */
(PID.TID 0000.0001)                -2.276225000000000E+03,      /* K = 39 */
(PID.TID 0000.0001)                -2.491250000000000E+03,      /* K = 40 */
(PID.TID 0000.0001)                -2.729250000000000E+03,      /* K = 41 */
(PID.TID 0000.0001)                -2.990250000000000E+03,      /* K = 42 */
(PID.TID 0000.0001)                -3.274250000000000E+03,      /* K = 43 */
(PID.TID 0000.0001)                -3.581250000000000E+03,      /* K = 44 */
(PID.TID 0000.0001)                -3.911250000000000E+03,      /* K = 45 */
(PID.TID 0000.0001)                -4.264250000000000E+03,      /* K = 46 */
(PID.TID 0000.0001)                -4.640250000000000E+03,      /* K = 47 */
(PID.TID 0000.0001)                -5.039250000000000E+03,      /* K = 48 */
(PID.TID 0000.0001)                -5.461250000000000E+03,      /* K = 49 */
(PID.TID 0000.0001)                -5.906250000000000E+03       /* K = 50 */
(PID.TID 0000.0001)     ;
(PID.TID 0000.0001) rF =   /* W-Interf. R coordinate (  units of r ) */
(PID.TID 0000.0001)                 0.000000000000000E+00,      /* K =  1 */
(PID.TID 0000.0001)                -1.000000000000000E+01,      /* K =  2 */
(PID.TID 0000.0001)                -2.000000000000000E+01,      /* K =  3 */
(PID.TID 0000.0001)                -3.000000000000000E+01,      /* K =  4 */
(PID.TID 0000.0001)                -4.000000000000000E+01,      /* K =  5 */
(PID.TID 0000.0001)                -5.000000000000000E+01,      /* K =  6 */
(PID.TID 0000.0001)                -6.000000000000000E+01,      /* K =  7 */
(PID.TID 0000.0001)                -7.000000000000000E+01,      /* K =  8 */
(PID.TID 0000.0001)                -8.001000000000001E+01,      /* K =  9 */
(PID.TID 0000.0001)                -9.004000000000001E+01,      /* K = 10 */
(PID.TID 0000.0001)                -1.001500000000000E+02,      /* K = 11 */
(PID.TID 0000.0001)                -1.104700000000000E+02,      /* K = 12 */
(PID.TID 0000.0001)                -1.212700000000000E+02,      /* K = 13 */
(PID.TID 0000.0001)                -1.330300000000000E+02,      /* K = 14 */
(PID.TID 0000.0001)                -1.464500000000000E+02,      /* K = 15 */
(PID.TID 0000.0001)                -1.624900000000000E+02,      /* K = 16 */
(PID.TID 0000.0001)                -1.823100000000000E+02,      /* K = 17 */
(PID.TID 0000.0001)                -2.071600000000000E+02,      /* K = 18 */
(PID.TID 0000.0001)                -2.382600000000000E+02,      /* K = 19 */
(PID.TID 0000.0001)                -2.766799999999999E+02,      /* K = 20 */
(PID.TID 0000.0001)                -3.231799999999999E+02,      /* K = 21 */
(PID.TID 0000.0001)                -3.781799999999999E+02,      /* K = 22 */
(PID.TID 0000.0001)                -4.416799999999999E+02,      /* K = 23 */
(PID.TID 0000.0001)                -5.132600000000000E+02,      /* K = 24 */
(PID.TID 0000.0001)                -5.921600000000000E+02,      /* K = 25 */
(PID.TID 0000.0001)                -6.773099999999999E+02,      /* K = 26 */
(PID.TID 0000.0001)                -7.674900000000000E+02,      /* K = 27 */
(PID.TID 0000.0001)                -8.614500000000000E+02,      /* K = 28 */
(PID.TID 0000.0001)                -9.580300000000001E+02,      /* K = 29 */
(PID.TID 0000.0001)                -1.056280000000000E+03,      /* K = 30 */
(PID.TID 0000.0001)                -1.155530000000000E+03,      /* K = 31 */
(PID.TID 0000.0001)                -1.255540000000000E+03,      /* K = 32 */
(PID.TID 0000.0001)                -1.356870000000000E+03,      /* K = 33 */
(PID.TID 0000.0001)                -1.461430000000000E+03,      /* K = 34 */
(PID.TID 0000.0001)                -1.572760000000000E+03,      /* K = 35 */
(PID.TID 0000.0001)                -1.695590000000000E+03,      /* K = 36 */
(PID.TID 0000.0001)                -1.834680000000000E+03,      /* K = 37 */
(PID.TID 0000.0001)                -1.993620000000000E+03,      /* K = 38 */
(PID.TID 0000.0001)                -2.174450000000000E+03,      /* K = 39 */
(PID.TID 0000.0001)                -2.378000000000000E+03,      /* K = 40 */
(PID.TID 0000.0001)                -2.604500000000000E+03,      /* K = 41 */
(PID.TID 0000.0001)                -2.854000000000000E+03,      /* K = 42 */
(PID.TID 0000.0001)                -3.126500000000000E+03,      /* K = 43 */
(PID.TID 0000.0001)                -3.422000000000000E+03,      /* K = 44 */
(PID.TID 0000.0001)                -3.740500000000000E+03,      /* K = 45 */
(PID.TID 0000.0001)                -4.082000000000000E+03,      /* K = 46 */
(PID.TID 0000.0001)                -4.446500000000000E+03,      /* K = 47 */
(PID.TID 0000.0001)                -4.834000000000000E+03,      /* K = 48 */
(PID.TID 0000.0001)                -5.244500000000000E+03,      /* K = 49 */
(PID.TID 0000.0001)                -5.678000000000000E+03,      /* K = 50 */
(PID.TID 0000.0001)                -6.134500000000000E+03       /* K = 51 */
(PID.TID 0000.0001)     ;
(PID.TID 0000.0001) deepFacC = /* deep-model grid factor @ cell-Center (-) */
(PID.TID 0000.0001)    50 @  1.000000000000000E+00              /* K =  1: 50 */
(PID.TID 0000.0001)     ;
(PID.TID 0000.0001) deepFacF = /* deep-model grid factor @ W-Interface (-) */
(PID.TID 0000.0001)    51 @  1.000000000000000E+00              /* K =  1: 51 */
(PID.TID 0000.0001)     ;
(PID.TID 0000.0001) rVel2wUnit = /* convert units: rVel -> wSpeed (=1 if z-coord)*/
(PID.TID 0000.0001)    51 @  1.000000000000000E+00              /* K =  1: 51 */
(PID.TID 0000.0001)     ;
(PID.TID 0000.0001) wUnit2rVel = /* convert units: wSpeed -> rVel (=1 if z-coord)*/
(PID.TID 0000.0001)    51 @  1.000000000000000E+00              /* K =  1: 51 */
(PID.TID 0000.0001)     ;
(PID.TID 0000.0001) dBdrRef = /* Vertical grad. of reference buoyancy [(m/s/r)^2] */
(PID.TID 0000.0001)     3 @  0.000000000000000E+00,             /* K =  1:  3 */
(PID.TID 0000.0001)                 2.706065538651213E-04,      /* K =  4 */
(PID.TID 0000.0001)     2 @  0.000000000000000E+00,             /* K =  5:  6 */
(PID.TID 0000.0001)                 2.632794562663490E-04,      /* K =  7 */
(PID.TID 0000.0001)                 2.554318021231947E-04,      /* K =  8 */
(PID.TID 0000.0001)                 0.000000000000000E+00,      /* K =  9 */
(PID.TID 0000.0001)                 2.461524232360561E-04,      /* K = 10 */
(PID.TID 0000.0001)                 2.348694431245364E-04,      /* K = 11 */
(PID.TID 0000.0001)                 0.000000000000000E+00,      /* K = 12 */
(PID.TID 0000.0001)                 2.056847859884566E-04,      /* K = 13 */
(PID.TID 0000.0001)                 1.777764506003336E-04,      /* K = 14 */
(PID.TID 0000.0001)                 0.000000000000000E+00,      /* K = 15 */
(PID.TID 0000.0001)                 1.203533867077665E-04,      /* K = 16 */
(PID.TID 0000.0001)                 9.288540355629585E-05,      /* K = 17 */
(PID.TID 0000.0001)                 7.115862770365155E-05,      /* K = 18 */
(PID.TID 0000.0001)                 5.484365820533800E-05,      /* K = 19 */
(PID.TID 0000.0001)                 4.290935507113214E-05,      /* K = 20 */
(PID.TID 0000.0001)                 6.658747741703880E-05,      /* K = 21 */
(PID.TID 0000.0001)                 0.000000000000000E+00,      /* K = 22 */
(PID.TID 0000.0001)                 2.323718420342036E-05,      /* K = 23 */
(PID.TID 0000.0001)                 1.974682037962757E-05,      /* K = 24 */
(PID.TID 0000.0001)                 1.709468932536602E-05,      /* K = 25 */
(PID.TID 0000.0001)                 0.000000000000000E+00,      /* K = 26 */
(PID.TID 0000.0001)                 1.455436545977052E-05,      /* K = 27 */
(PID.TID 0000.0001)                 0.000000000000000E+00,      /* K = 28 */
(PID.TID 0000.0001)                 1.315287111980149E-05,      /* K = 29 */
(PID.TID 0000.0001)     2 @  0.000000000000000E+00,             /* K = 30: 31 */
(PID.TID 0000.0001)                 1.240968507885233E-05,      /* K = 32 */
(PID.TID 0000.0001)     2 @  0.000000000000000E+00,             /* K = 33: 34 */
(PID.TID 0000.0001)                 1.045141607964570E-05,      /* K = 35 */
(PID.TID 0000.0001)     3 @  0.000000000000000E+00,             /* K = 36: 38 */
(PID.TID 0000.0001)                 6.628797113709505E-06,      /* K = 39 */
(PID.TID 0000.0001)    11 @  0.000000000000000E+00              /* K = 40: 50 */
(PID.TID 0000.0001)     ;
(PID.TID 0000.0001) rotateGrid = /* use rotated grid ( True/False ) */
(PID.TID 0000.0001)                   F
(PID.TID 0000.0001)     ;
(PID.TID 0000.0001) phiEuler = /* Euler angle, rotation about original z-coordinate [rad] */
(PID.TID 0000.0001)                 0.000000000000000E+00
(PID.TID 0000.0001)     ;
(PID.TID 0000.0001) thetaEuler = /* Euler angle, rotation about new x-coordinate [rad] */
(PID.TID 0000.0001)                 0.000000000000000E+00
(PID.TID 0000.0001)     ;
(PID.TID 0000.0001) psiEuler = /* Euler angle, rotation about new z-coordinate [rad] */
(PID.TID 0000.0001)                 0.000000000000000E+00
(PID.TID 0000.0001)     ;
(PID.TID 0000.0001) dxF =  /* dxF(:,1,:,1) ( units: m ) */
(PID.TID 0000.0001)                 1.202082051331828E+05,      /* I =  1 */
(PID.TID 0000.0001)                 1.563594089971120E+05,      /* I =  2 */
(PID.TID 0000.0001)                 1.835530058121492E+05,      /* I =  3 */
(PID.TID 0000.0001)      . . .
(PID.TID 0000.0001)                 1.835530058121492E+05,      /* I = 94 */
(PID.TID 0000.0001)                 1.563594089971120E+05,      /* I = 95 */
(PID.TID 0000.0001)                 1.202082051331828E+05,      /* I = 96 */
(PID.TID 0000.0001)                 3.012844832048790E+05,      /* I = 97 */
(PID.TID 0000.0001)                 3.017314519159184E+05,      /* I = 98 */
(PID.TID 0000.0001)                 3.026061571839506E+05,      /* I = 99 */
(PID.TID 0000.0001)      . . .
(PID.TID 0000.0001)                 3.026061571839506E+05,      /* I =190 */
(PID.TID 0000.0001)                 3.017314519159184E+05,      /* I =191 */
(PID.TID 0000.0001)                 3.012844832048790E+05,      /* I =192 */
(PID.TID 0000.0001)                 1.202082051331828E+05,      /* I =193 */
(PID.TID 0000.0001)                 1.563594089971120E+05,      /* I =194 */
(PID.TID 0000.0001)                 1.835530058121492E+05,      /* I =195 */
(PID.TID 0000.0001)      . . .
(PID.TID 0000.0001)                 1.835530058121492E+05,      /* I =286 */
(PID.TID 0000.0001)                 1.563594089971120E+05,      /* I =287 */
(PID.TID 0000.0001)                 1.202082051331828E+05,      /* I =288 */
(PID.TID 0000.0001)                 3.012844832048790E+05,      /* I =289 */
(PID.TID 0000.0001)                 3.017314519159184E+05,      /* I =290 */
(PID.TID 0000.0001)                 3.026061571839506E+05,      /* I =291 */
(PID.TID 0000.0001)      . . .
(PID.TID 0000.0001)                 3.026061571839506E+05,      /* I =382 */
(PID.TID 0000.0001)                 3.017314519159184E+05,      /* I =383 */
(PID.TID 0000.0001)                 3.012844832048790E+05       /* I =384 */
(PID.TID 0000.0001)     ;
(PID.TID 0000.0001) dxF =  /* dxF(1,:,1,:) ( units: m ) */
(PID.TID 0000.0001)                 1.202082051331828E+05,      /* J =  1 */
(PID.TID 0000.0001)                 1.572908084538706E+05,      /* J =  2 */
(PID.TID 0000.0001)                 1.840412227747703E+05,      /* J =  3 */
(PID.TID 0000.0001)                 2.048868197919576E+05,      /* J =  4 */
(PID.TID 0000.0001)                 2.220405216043041E+05,      /* J =  5 */
(PID.TID 0000.0001)                 2.365892017348392E+05,      /* J =  6 */
(PID.TID 0000.0001)                 2.491250781852558E+05,      /* J =  7 */
(PID.TID 0000.0001)                 2.599949918261881E+05,      /* J =  8 */
(PID.TID 0000.0001)                 2.694110134598581E+05,      /* J =  9 */
(PID.TID 0000.0001)                 2.775055554645015E+05,      /* J = 10 */
(PID.TID 0000.0001)                 2.843615645344775E+05,      /* J = 11 */
(PID.TID 0000.0001)                 2.900303768613599E+05,      /* J = 12 */
(PID.TID 0000.0001)                 2.945429307892709E+05,      /* J = 13 */
(PID.TID 0000.0001)                 2.979171143158405E+05,      /* J = 14 */
(PID.TID 0000.0001)                 3.001626787528886E+05,      /* J = 15 */
(PID.TID 0000.0001)                 3.012844832048790E+05       /* J = 16 */
(PID.TID 0000.0001)     ;
(PID.TID 0000.0001) dyF =  /* dyF(:,1,:,1) ( units: m ) */
(PID.TID 0000.0001)                 1.202082051331828E+05,      /* I =  1 */
(PID.TID 0000.0001)                 1.572908084538706E+05,      /* I =  2 */
(PID.TID 0000.0001)                 1.840412227747703E+05,      /* I =  3 */
(PID.TID 0000.0001)      . . .
(PID.TID 0000.0001)                 1.840412227747703E+05,      /* I = 94 */
(PID.TID 0000.0001)                 1.572908084538706E+05,      /* I = 95 */
(PID.TID 0000.0001)                 1.202082051331828E+05,      /* I = 96 */
(PID.TID 0000.0001)                 3.012190981969055E+05,      /* I = 97 */
(PID.TID 0000.0001)                 3.016675528553907E+05,      /* I = 98 */
(PID.TID 0000.0001)                 3.025451404065074E+05,      /* I = 99 */
(PID.TID 0000.0001)      . . .
(PID.TID 0000.0001)                 3.025451404065074E+05,      /* I =190 */
(PID.TID 0000.0001)                 3.016675528553907E+05,      /* I =191 */
(PID.TID 0000.0001)                 3.012190981969055E+05,      /* I =192 */
(PID.TID 0000.0001)                 1.202082051331828E+05,      /* I =193 */
(PID.TID 0000.0001)                 1.572908084538706E+05,      /* I =194 */
(PID.TID 0000.0001)                 1.840412227747703E+05,      /* I =195 */
(PID.TID 0000.0001)      . . .
(PID.TID 0000.0001)                 1.840412227747703E+05,      /* I =286 */
(PID.TID 0000.0001)                 1.572908084538706E+05,      /* I =287 */
(PID.TID 0000.0001)                 1.202082051331828E+05,      /* I =288 */
(PID.TID 0000.0001)                 3.012190981969055E+05,      /* I =289 */
(PID.TID 0000.0001)                 3.016675528553907E+05,      /* I =290 */
(PID.TID 0000.0001)                 3.025451404065074E+05,      /* I =291 */
(PID.TID 0000.0001)      . . .
(PID.TID 0000.0001)                 3.025451404065074E+05,      /* I =382 */
(PID.TID 0000.0001)                 3.016675528553907E+05,      /* I =383 */
(PID.TID 0000.0001)                 3.012190981969055E+05       /* I =384 */
(PID.TID 0000.0001)     ;
(PID.TID 0000.0001) dyF =  /* dyF(1,:,1,:) ( units: m ) */
(PID.TID 0000.0001)                 1.202082051331828E+05,      /* J =  1 */
(PID.TID 0000.0001)                 1.563594089971120E+05,      /* J =  2 */
(PID.TID 0000.0001)                 1.835530058121492E+05,      /* J =  3 */
(PID.TID 0000.0001)                 2.045883481718707E+05,      /* J =  4 */
(PID.TID 0000.0001)                 2.218350349844185E+05,      /* J =  5 */
(PID.TID 0000.0001)                 2.364352994647058E+05,      /* J =  6 */
(PID.TID 0000.0001)                 2.490022710862746E+05,      /* J =  7 */
(PID.TID 0000.0001)                 2.598919724358304E+05,      /* J =  8 */
(PID.TID 0000.0001)                 2.693210245495156E+05,      /* J =  9 */
(PID.TID 0000.0001)                 2.774243179696503E+05,      /* J = 10 */
(PID.TID 0000.0001)                 2.842862532064524E+05,      /* J = 11 */
(PID.TID 0000.0001)                 2.899590699694043E+05,      /* J = 12 */
(PID.TID 0000.0001)                 2.944742915095688E+05,      /* J = 13 */
(PID.TID 0000.0001)                 2.978501920522794E+05,      /* J = 14 */
(PID.TID 0000.0001)                 3.000967749619962E+05,      /* J = 15 */
(PID.TID 0000.0001)                 3.012190981969055E+05       /* J = 16 */
(PID.TID 0000.0001)     ;
(PID.TID 0000.0001) dxG =  /* dxG(:,1,:,1) ( units: m ) */
(PID.TID 0000.0001)                 1.009837800879055E+05,      /* I =  1 */
(PID.TID 0000.0001)                 1.534505834330338E+05,      /* I =  2 */
(PID.TID 0000.0001)                 1.823321598773926E+05,      /* I =  3 */
(PID.TID 0000.0001)      . . .
(PID.TID 0000.0001)                 1.823321598773926E+05,      /* I = 94 */
(PID.TID 0000.0001)                 1.534505834330338E+05,      /* I = 95 */
(PID.TID 0000.0001)                 1.009837800879055E+05,      /* I = 96 */
(PID.TID 0000.0001)                 3.014246674484008E+05,      /* I = 97 */
(PID.TID 0000.0001)                 3.018694497480782E+05,      /* I = 98 */
(PID.TID 0000.0001)                 3.027399364062562E+05,      /* I = 99 */
(PID.TID 0000.0001)      . . .
(PID.TID 0000.0001)                 3.027399364062562E+05,      /* I =190 */
(PID.TID 0000.0001)                 3.018694497480782E+05,      /* I =191 */
(PID.TID 0000.0001)                 3.014246674484008E+05,      /* I =192 */
(PID.TID 0000.0001)                 1.009837800879055E+05,      /* I =193 */
(PID.TID 0000.0001)                 1.534505834330338E+05,      /* I =194 */
(PID.TID 0000.0001)                 1.823321598773926E+05,      /* I =195 */
(PID.TID 0000.0001)      . . .
(PID.TID 0000.0001)                 1.823321598773926E+05,      /* I =286 */
(PID.TID 0000.0001)                 1.534505834330338E+05,      /* I =287 */
(PID.TID 0000.0001)                 1.009837800879055E+05,      /* I =288 */
(PID.TID 0000.0001)                 3.014246674484008E+05,      /* I =289 */
(PID.TID 0000.0001)                 3.018694497480782E+05,      /* I =290 */
(PID.TID 0000.0001)                 3.027399364062562E+05,      /* I =291 */
(PID.TID 0000.0001)      . . .
(PID.TID 0000.0001)                 3.027399364062562E+05,      /* I =382 */
(PID.TID 0000.0001)                 3.018694497480782E+05,      /* I =383 */
(PID.TID 0000.0001)                 3.014246674484008E+05       /* I =384 */
(PID.TID 0000.0001)     ;
(PID.TID 0000.0001) dxG =  /* dxG(1,:,1,:) ( units: m ) */
(PID.TID 0000.0001)                 1.009837800879055E+05,      /* J =  1 */
(PID.TID 0000.0001)                 1.403701524205398E+05,      /* J =  2 */
(PID.TID 0000.0001)                 1.716197227386011E+05,      /* J =  3 */
(PID.TID 0000.0001)                 1.950254041626018E+05,      /* J =  4 */
(PID.TID 0000.0001)                 2.138410773065497E+05,      /* J =  5 */
(PID.TID 0000.0001)                 2.295958105911512E+05,      /* J =  6 */
(PID.TID 0000.0001)                 2.430829951739083E+05,      /* J =  7 */
(PID.TID 0000.0001)                 2.547526806712889E+05,      /* J =  8 */
(PID.TID 0000.0001)                 2.648750305193301E+05,      /* J =  9 */
(PID.TID 0000.0001)                 2.736173771018112E+05,      /* J = 10 */
(PID.TID 0000.0001)                 2.810845823202647E+05,      /* J = 11 */
(PID.TID 0000.0001)                 2.873420591008078E+05,      /* J = 12 */
(PID.TID 0000.0001)                 2.924298293668651E+05,      /* J = 13 */
(PID.TID 0000.0001)                 2.963715635865306E+05,      /* J = 14 */
(PID.TID 0000.0001)                 2.991805843171258E+05,      /* J = 15 */
(PID.TID 0000.0001)                 3.008638765647886E+05       /* J = 16 */
(PID.TID 0000.0001)     ;
(PID.TID 0000.0001) dyG =  /* dyG(:,1,:,1) ( units: m ) */
(PID.TID 0000.0001)                 1.009837800879055E+05,      /* I =  1 */
(PID.TID 0000.0001)                 1.403701524205398E+05,      /* I =  2 */
(PID.TID 0000.0001)                 1.716197227386011E+05,      /* I =  3 */
(PID.TID 0000.0001)      . . .
(PID.TID 0000.0001)                 1.950254041626018E+05,      /* I = 94 */
(PID.TID 0000.0001)                 1.716197227386011E+05,      /* I = 95 */
(PID.TID 0000.0001)                 1.403701524205398E+05,      /* I = 96 */
(PID.TID 0000.0001)                 3.011625828699101E+05,      /* I = 97 */
(PID.TID 0000.0001)                 3.013880313304323E+05,      /* I = 98 */
(PID.TID 0000.0001)                 3.020546438966793E+05,      /* I = 99 */
(PID.TID 0000.0001)      . . .
(PID.TID 0000.0001)                 3.031337933484788E+05,      /* I =190 */
(PID.TID 0000.0001)                 3.020546438966793E+05,      /* I =191 */
(PID.TID 0000.0001)                 3.013880313304323E+05,      /* I =192 */
(PID.TID 0000.0001)                 1.009837800879055E+05,      /* I =193 */
(PID.TID 0000.0001)                 1.403701524205398E+05,      /* I =194 */
(PID.TID 0000.0001)                 1.716197227386011E+05,      /* I =195 */
(PID.TID 0000.0001)      . . .
(PID.TID 0000.0001)                 1.950254041626018E+05,      /* I =286 */
(PID.TID 0000.0001)                 1.716197227386011E+05,      /* I =287 */
(PID.TID 0000.0001)                 1.403701524205398E+05,      /* I =288 */
(PID.TID 0000.0001)                 3.011625828699101E+05,      /* I =289 */
(PID.TID 0000.0001)                 3.013880313304323E+05,      /* I =290 */
(PID.TID 0000.0001)                 3.020546438966793E+05,      /* I =291 */
(PID.TID 0000.0001)      . . .
(PID.TID 0000.0001)                 3.031337933484788E+05,      /* I =382 */
(PID.TID 0000.0001)                 3.020546438966793E+05,      /* I =383 */
(PID.TID 0000.0001)                 3.013880313304323E+05       /* I =384 */
(PID.TID 0000.0001)     ;
(PID.TID 0000.0001) dyG =  /* dyG(1,:,1,:) ( units: m ) */
(PID.TID 0000.0001)                 1.009837800879055E+05,      /* J =  1 */
(PID.TID 0000.0001)                 1.534505834330338E+05,      /* J =  2 */
(PID.TID 0000.0001)                 1.823321598773926E+05,      /* J =  3 */
(PID.TID 0000.0001)                 2.038999045536999E+05,      /* J =  4 */
(PID.TID 0000.0001)                 2.213884732245467E+05,      /* J =  5 */
(PID.TID 0000.0001)                 2.361211699596122E+05,      /* J =  6 */
(PID.TID 0000.0001)                 2.487693460283865E+05,      /* J =  7 */
(PID.TID 0000.0001)                 2.597126963772147E+05,      /* J =  8 */
(PID.TID 0000.0001)                 2.691790288994575E+05,      /* J =  9 */
(PID.TID 0000.0001)                 2.773091043277394E+05,      /* J = 10 */
(PID.TID 0000.0001)                 2.841906470085516E+05,      /* J = 11 */
(PID.TID 0000.0001)                 2.898778860929753E+05,      /* J = 12 */
(PID.TID 0000.0001)                 2.944035815526416E+05,      /* J = 13 */
(PID.TID 0000.0001)                 2.977867909042096E+05,      /* J = 14 */
(PID.TID 0000.0001)                 3.000380090330854E+05,      /* J = 15 */
(PID.TID 0000.0001)                 3.011625828699101E+05       /* J = 16 */
(PID.TID 0000.0001)     ;
(PID.TID 0000.0001) dxC =  /* dxC(:,1,:,1) ( units: m ) */
(PID.TID 0000.0001)                 1.114203141013064E+05,      /* I =  1 */
(PID.TID 0000.0001)                 1.391343389937106E+05,      /* I =  2 */
(PID.TID 0000.0001)                 1.709574999026266E+05,      /* I =  3 */
(PID.TID 0000.0001)      . . .
(PID.TID 0000.0001)                 1.946503699269892E+05,      /* I = 94 */
(PID.TID 0000.0001)                 1.709574999026266E+05,      /* I = 95 */
(PID.TID 0000.0001)                 1.391343389937106E+05,      /* I = 96 */
(PID.TID 0000.0001)                 3.012281885409289E+05,      /* I = 97 */
(PID.TID 0000.0001)                 3.014528555318499E+05,      /* I = 98 */
(PID.TID 0000.0001)                 3.021172674809921E+05,      /* I = 99 */
(PID.TID 0000.0001)      . . .
(PID.TID 0000.0001)                 3.031928954490276E+05,      /* I =190 */
(PID.TID 0000.0001)                 3.021172674809921E+05,      /* I =191 */
(PID.TID 0000.0001)                 3.014528555318499E+05,      /* I =192 */
(PID.TID 0000.0001)                 1.114203141013064E+05,      /* I =193 */
(PID.TID 0000.0001)                 1.391343389937106E+05,      /* I =194 */
(PID.TID 0000.0001)                 1.709574999026266E+05,      /* I =195 */
(PID.TID 0000.0001)      . . .
(PID.TID 0000.0001)                 1.946503699269892E+05,      /* I =286 */
(PID.TID 0000.0001)                 1.709574999026266E+05,      /* I =287 */
(PID.TID 0000.0001)                 1.391343389937106E+05,      /* I =288 */
(PID.TID 0000.0001)                 3.012281885409289E+05,      /* I =289 */
(PID.TID 0000.0001)                 3.014528555318499E+05,      /* I =290 */
(PID.TID 0000.0001)                 3.021172674809921E+05,      /* I =291 */
(PID.TID 0000.0001)      . . .
(PID.TID 0000.0001)                 3.031928954490276E+05,      /* I =382 */
(PID.TID 0000.0001)                 3.021172674809921E+05,      /* I =383 */
(PID.TID 0000.0001)                 3.014528555318499E+05       /* I =384 */
(PID.TID 0000.0001)     ;
(PID.TID 0000.0001) dxC =  /* dxC(1,:,1,:) ( units: m ) */
(PID.TID 0000.0001)                 1.114203141013064E+05,      /* J =  1 */
(PID.TID 0000.0001)                 1.549545757850771E+05,      /* J =  2 */
(PID.TID 0000.0001)                 1.829777599966776E+05,      /* J =  3 */
(PID.TID 0000.0001)                 2.042717761866506E+05,      /* J =  4 */
(PID.TID 0000.0001)                 2.216367828252819E+05,      /* J =  5 */
(PID.TID 0000.0001)                 2.363029564123586E+05,      /* J =  6 */
(PID.TID 0000.0001)                 2.489113743322025E+05,      /* J =  7 */
(PID.TID 0000.0001)                 2.598293319150326E+05,      /* J =  8 */
(PID.TID 0000.0001)                 2.692787333338535E+05,      /* J =  9 */
(PID.TID 0000.0001)                 2.773972106720365E+05,      /* J = 10 */
(PID.TID 0000.0001)                 2.842706922224557E+05,      /* J = 11 */
(PID.TID 0000.0001)                 2.899523122489403E+05,      /* J = 12 */
(PID.TID 0000.0001)                 2.944741346384699E+05,      /* J = 13 */
(PID.TID 0000.0001)                 2.978547649292580E+05,      /* J = 14 */
(PID.TID 0000.0001)                 3.001044073506459E+05,      /* J = 15 */
(PID.TID 0000.0001)                 3.012281885409289E+05       /* J = 16 */
(PID.TID 0000.0001)     ;
(PID.TID 0000.0001) dyC =  /* dyC(:,1,:,1) ( units: m ) */
(PID.TID 0000.0001)                 1.114203141013064E+05,      /* I =  1 */
(PID.TID 0000.0001)                 1.549545757850771E+05,      /* I =  2 */
(PID.TID 0000.0001)                 1.829777599966776E+05,      /* I =  3 */
(PID.TID 0000.0001)      . . .
(PID.TID 0000.0001)                 1.829777599966776E+05,      /* I = 94 */
(PID.TID 0000.0001)                 1.549545757850771E+05,      /* I = 95 */
(PID.TID 0000.0001)                 1.114203141013064E+05,      /* I = 96 */
(PID.TID 0000.0001)                 3.013593857228136E+05,      /* I = 97 */
(PID.TID 0000.0001)                 3.018056440786431E+05,      /* I = 98 */
(PID.TID 0000.0001)                 3.026789946729719E+05,      /* I = 99 */
(PID.TID 0000.0001)      . . .
(PID.TID 0000.0001)                 3.026789946729719E+05,      /* I =190 */
(PID.TID 0000.0001)                 3.018056440786431E+05,      /* I =191 */
(PID.TID 0000.0001)                 3.013593857228136E+05,      /* I =192 */
(PID.TID 0000.0001)                 1.114203141013064E+05,      /* I =193 */
(PID.TID 0000.0001)                 1.549545757850771E+05,      /* I =194 */
(PID.TID 0000.0001)                 1.829777599966776E+05,      /* I =195 */
(PID.TID 0000.0001)      . . .
(PID.TID 0000.0001)                 1.829777599966776E+05,      /* I =286 */
(PID.TID 0000.0001)                 1.549545757850771E+05,      /* I =287 */
(PID.TID 0000.0001)                 1.114203141013064E+05,      /* I =288 */
(PID.TID 0000.0001)                 3.013593857228136E+05,      /* I =289 */
(PID.TID 0000.0001)                 3.018056440786431E+05,      /* I =290 */
(PID.TID 0000.0001)                 3.026789946729719E+05,      /* I =291 */
(PID.TID 0000.0001)      . . .
(PID.TID 0000.0001)                 3.026789946729719E+05,      /* I =382 */
(PID.TID 0000.0001)                 3.018056440786431E+05,      /* I =383 */
(PID.TID 0000.0001)                 3.013593857228136E+05       /* I =384 */
(PID.TID 0000.0001)     ;
(PID.TID 0000.0001) dyC =  /* dyC(1,:,1,:) ( units: m ) */
(PID.TID 0000.0001)                 1.114203141013064E+05,      /* J =  1 */
(PID.TID 0000.0001)                 1.391343389937106E+05,      /* J =  2 */
(PID.TID 0000.0001)                 1.709574999026266E+05,      /* J =  3 */
(PID.TID 0000.0001)                 1.946503699269892E+05,      /* J =  4 */
(PID.TID 0000.0001)                 2.135964483342134E+05,      /* J =  5 */
(PID.TID 0000.0001)                 2.294195678257306E+05,      /* J =  6 */
(PID.TID 0000.0001)                 2.429464709770498E+05,      /* J =  7 */
(PID.TID 0000.0001)                 2.546408290696998E+05,      /* J =  8 */
(PID.TID 0000.0001)                 2.647791839299727E+05,      /* J =  9 */
(PID.TID 0000.0001)                 2.735321911346108E+05,      /* J = 10 */
(PID.TID 0000.0001)                 2.810065951609633E+05,      /* J = 11 */
(PID.TID 0000.0001)                 2.872689479506990E+05,      /* J = 12 */
(PID.TID 0000.0001)                 2.923599955312932E+05,      /* J = 13 */
(PID.TID 0000.0001)                 2.963038832565530E+05,      /* J = 14 */
(PID.TID 0000.0001)                 2.991142470004740E+05,      /* J = 15 */
(PID.TID 0000.0001)                 3.007982711627968E+05       /* J = 16 */
(PID.TID 0000.0001)     ;
(PID.TID 0000.0001) dxV =  /* dxV(:,1,:,1) ( units: m ) */
(PID.TID 0000.0001)                 8.015229982413632E+04,      /* I =  1 */
(PID.TID 0000.0001)                 1.333130744933864E+05,      /* I =  2 */
(PID.TID 0000.0001)                 1.691744868129062E+05,      /* I =  3 */
(PID.TID 0000.0001)      . . .
(PID.TID 0000.0001)                 1.937548202849060E+05,      /* I = 94 */
(PID.TID 0000.0001)                 1.691744868129062E+05,      /* I = 95 */
(PID.TID 0000.0001)                 1.333130744933864E+05,      /* I = 96 */
(PID.TID 0000.0001)                 3.013686170436881E+05,      /* I = 97 */
(PID.TID 0000.0001)                 3.015922136961168E+05,      /* I = 98 */
(PID.TID 0000.0001)                 3.022533948177109E+05,      /* I = 99 */
(PID.TID 0000.0001)      . . .
(PID.TID 0000.0001)                 3.033238888442880E+05,      /* I =190 */
(PID.TID 0000.0001)                 3.022533948177109E+05,      /* I =191 */
(PID.TID 0000.0001)                 3.015922136961168E+05,      /* I =192 */
(PID.TID 0000.0001)                 8.015229982413632E+04,      /* I =193 */
(PID.TID 0000.0001)                 1.333130744933864E+05,      /* I =194 */
(PID.TID 0000.0001)                 1.691744868129062E+05,      /* I =195 */
(PID.TID 0000.0001)      . . .
(PID.TID 0000.0001)                 1.937548202849060E+05,      /* I =286 */
(PID.TID 0000.0001)                 1.691744868129062E+05,      /* I =287 */
(PID.TID 0000.0001)                 1.333130744933864E+05,      /* I =288 */
(PID.TID 0000.0001)                 3.013686170436881E+05,      /* I =289 */
(PID.TID 0000.0001)                 3.015922136961168E+05,      /* I =290 */
(PID.TID 0000.0001)                 3.022533948177109E+05,      /* I =291 */
(PID.TID 0000.0001)      . . .
(PID.TID 0000.0001)                 3.033238888442880E+05,      /* I =382 */
(PID.TID 0000.0001)                 3.022533948177109E+05,      /* I =383 */
(PID.TID 0000.0001)                 3.015922136961168E+05       /* I =384 */
(PID.TID 0000.0001)     ;
(PID.TID 0000.0001) dxV =  /* dxV(1,:,1,:) ( units: m ) */
(PID.TID 0000.0001)                 8.015229982413632E+04,      /* J =  1 */
(PID.TID 0000.0001)                 1.362652340208229E+05,      /* J =  2 */
(PID.TID 0000.0001)                 1.701080315742101E+05,      /* J =  3 */
(PID.TID 0000.0001)                 1.942331448101592E+05,      /* J =  4 */
(PID.TID 0000.0001)                 2.133486626971531E+05,      /* J =  5 */
(PID.TID 0000.0001)                 2.292584591272880E+05,      /* J =  6 */
(PID.TID 0000.0001)                 2.428369969078989E+05,      /* J =  7 */
(PID.TID 0000.0001)                 2.545652950875683E+05,      /* J =  8 */
(PID.TID 0000.0001)                 2.647274964828301E+05,      /* J =  9 */
(PID.TID 0000.0001)                 2.734980225206389E+05,      /* J = 10 */
(PID.TID 0000.0001)                 2.809856491525217E+05,      /* J = 11 */
(PID.TID 0000.0001)                 2.872580915202295E+05,      /* J = 12 */
(PID.TID 0000.0001)                 2.923567890694162E+05,      /* J = 13 */
(PID.TID 0000.0001)                 2.963063101754721E+05,      /* J = 14 */
(PID.TID 0000.0001)                 2.991205495886625E+05,      /* J = 15 */
(PID.TID 0000.0001)                 3.008068453676764E+05       /* J = 16 */
(PID.TID 0000.0001)     ;
(PID.TID 0000.0001) dyU =  /* dyU(:,1,:,1) ( units: m ) */
(PID.TID 0000.0001)                 8.015229982413632E+04,      /* I =  1 */
(PID.TID 0000.0001)                 1.362652340208229E+05,      /* I =  2 */
(PID.TID 0000.0001)                 1.701080315742101E+05,      /* I =  3 */
(PID.TID 0000.0001)      . . .
(PID.TID 0000.0001)                 1.942331448101592E+05,      /* I = 94 */
(PID.TID 0000.0001)                 1.701080315742101E+05,      /* I = 95 */
(PID.TID 0000.0001)                 1.362652340208229E+05,      /* I = 96 */
(PID.TID 0000.0001)                 3.013031486919771E+05,      /* I = 97 */
(PID.TID 0000.0001)                 3.015274890091515E+05,      /* I = 98 */
(PID.TID 0000.0001)                 3.021908563699420E+05,      /* I = 99 */
(PID.TID 0000.0001)      . . .
(PID.TID 0000.0001)                 3.032648502024415E+05,      /* I =190 */
(PID.TID 0000.0001)                 3.021908563699420E+05,      /* I =191 */
(PID.TID 0000.0001)                 3.015274890091515E+05,      /* I =192 */
(PID.TID 0000.0001)                 8.015229982413632E+04,      /* I =193 */
(PID.TID 0000.0001)                 1.362652340208229E+05,      /* I =194 */
(PID.TID 0000.0001)                 1.701080315742101E+05,      /* I =195 */
(PID.TID 0000.0001)      . . .
(PID.TID 0000.0001)                 1.942331448101592E+05,      /* I =286 */
(PID.TID 0000.0001)                 1.701080315742101E+05,      /* I =287 */
(PID.TID 0000.0001)                 1.362652340208229E+05,      /* I =288 */
(PID.TID 0000.0001)                 3.013031486919771E+05,      /* I =289 */
(PID.TID 0000.0001)                 3.015274890091515E+05,      /* I =290 */
(PID.TID 0000.0001)                 3.021908563699420E+05,      /* I =291 */
(PID.TID 0000.0001)      . . .
(PID.TID 0000.0001)                 3.032648502024415E+05,      /* I =382 */
(PID.TID 0000.0001)                 3.021908563699420E+05,      /* I =383 */
(PID.TID 0000.0001)                 3.015274890091515E+05       /* I =384 */
(PID.TID 0000.0001)     ;
(PID.TID 0000.0001) dyU =  /* dyU(1,:,1,:) ( units: m ) */
(PID.TID 0000.0001)                 8.015229982413632E+04,      /* J =  1 */
(PID.TID 0000.0001)                 1.333130744933864E+05,      /* J =  2 */
(PID.TID 0000.0001)                 1.691744868129062E+05,      /* J =  3 */
(PID.TID 0000.0001)                 1.937548202849060E+05,      /* J =  4 */
(PID.TID 0000.0001)                 2.130490056267208E+05,      /* J =  5 */
(PID.TID 0000.0001)                 2.290479919481738E+05,      /* J =  6 */
(PID.TID 0000.0001)                 2.426774358027003E+05,      /* J =  7 */
(PID.TID 0000.0001)                 2.544372984215561E+05,      /* J =  8 */
(PID.TID 0000.0001)                 2.646201463834826E+05,      /* J =  9 */
(PID.TID 0000.0001)                 2.734046499619031E+05,      /* J = 10 */
(PID.TID 0000.0001)                 2.809019351693761E+05,      /* J = 11 */
(PID.TID 0000.0001)                 2.871811105274442E+05,      /* J = 12 */
(PID.TID 0000.0001)                 2.922844849381675E+05,      /* J = 13 */
(PID.TID 0000.0001)                 2.962371870847826E+05,      /* J = 14 */
(PID.TID 0000.0001)                 2.990534755671296E+05,      /* J = 15 */
(PID.TID 0000.0001)                 3.007409169495504E+05       /* J = 16 */
(PID.TID 0000.0001)     ;
(PID.TID 0000.0001) rA  =  /* rA (:,1,:,1) ( units: m^2 ) */
(PID.TID 0000.0001)                 1.401900702255611E+10,      /* I =  1 */
(PID.TID 0000.0001)                 2.459906945574446E+10,      /* I =  2 */
(PID.TID 0000.0001)                 3.378518544307869E+10,      /* I =  3 */
(PID.TID 0000.0001)      . . .
(PID.TID 0000.0001)                 3.378518544304265E+10,      /* I = 94 */
(PID.TID 0000.0001)                 2.459906945574446E+10,      /* I = 95 */
(PID.TID 0000.0001)                 1.401900702259215E+10,      /* I = 96 */
(PID.TID 0000.0001)                 9.076111290422060E+10,      /* I = 97 */
(PID.TID 0000.0001)                 9.103111035233499E+10,      /* I = 98 */
(PID.TID 0000.0001)                 9.156064070993231E+10,      /* I = 99 */
(PID.TID 0000.0001)      . . .
(PID.TID 0000.0001)                 9.156064070993231E+10,      /* I =190 */
(PID.TID 0000.0001)                 9.103111035233499E+10,      /* I =191 */
(PID.TID 0000.0001)                 9.076111290418457E+10,      /* I =192 */
(PID.TID 0000.0001)                 1.401900702255611E+10,      /* I =193 */
(PID.TID 0000.0001)                 2.459906945574446E+10,      /* I =194 */
(PID.TID 0000.0001)                 3.378518544307869E+10,      /* I =195 */
(PID.TID 0000.0001)      . . .
(PID.TID 0000.0001)                 3.378518544304265E+10,      /* I =286 */
(PID.TID 0000.0001)                 2.459906945574446E+10,      /* I =287 */
(PID.TID 0000.0001)                 1.401900702259215E+10,      /* I =288 */
(PID.TID 0000.0001)                 9.076111290422060E+10,      /* I =289 */
(PID.TID 0000.0001)                 9.103111035233499E+10,      /* I =290 */
(PID.TID 0000.0001)                 9.156064070993231E+10,      /* I =291 */
(PID.TID 0000.0001)      . . .
(PID.TID 0000.0001)                 9.156064070993231E+10,      /* I =382 */
(PID.TID 0000.0001)                 9.103111035233499E+10,      /* I =383 */
(PID.TID 0000.0001)                 9.076111290418457E+10       /* I =384 */
(PID.TID 0000.0001)     ;
(PID.TID 0000.0001) rA  =  /* rA (1,:,1,:) ( units: m^2 ) */
(PID.TID 0000.0001)                 1.401900702255611E+10,      /* J =  1 */
(PID.TID 0000.0001)                 2.459906945574446E+10,      /* J =  2 */
(PID.TID 0000.0001)                 3.378518544307869E+10,      /* J =  3 */
(PID.TID 0000.0001)                 4.192037169898667E+10,      /* J =  4 */
(PID.TID 0000.0001)                 4.925938996118163E+10,      /* J =  5 */
(PID.TID 0000.0001)                 5.594154126607553E+10,      /* J =  6 */
(PID.TID 0000.0001)                 6.203683527776127E+10,      /* J =  7 */
(PID.TID 0000.0001)                 6.757541173817516E+10,      /* J =  8 */
(PID.TID 0000.0001)                 7.256353271748119E+10,      /* J =  9 */
(PID.TID 0000.0001)                 7.699293007098555E+10,      /* J = 10 */
(PID.TID 0000.0001)                 8.084683449728902E+10,      /* J = 11 */
(PID.TID 0000.0001)                 8.410423102799828E+10,      /* J = 12 */
(PID.TID 0000.0001)                 8.674306976737517E+10,      /* J = 13 */
(PID.TID 0000.0001)                 8.874277443041928E+10,      /* J = 14 */
(PID.TID 0000.0001)                 9.008620045350865E+10,      /* J = 15 */
(PID.TID 0000.0001)                 9.076111290418457E+10       /* J = 16 */
(PID.TID 0000.0001)     ;
(PID.TID 0000.0001) rAw =  /* rAw(:,1,:,1) ( units: m^2 ) */
(PID.TID 0000.0001)                 1.216690346714270E+10,      /* I =  1 */
(PID.TID 0000.0001)                 1.974052138506315E+10,      /* I =  2 */
(PID.TID 0000.0001)                 2.943712825252015E+10,      /* I =  3 */
(PID.TID 0000.0001)      . . .
(PID.TID 0000.0001)                 3.801790263325260E+10,      /* I = 94 */
(PID.TID 0000.0001)                 2.943712825251114E+10,      /* I = 95 */
(PID.TID 0000.0001)                 1.974052138509018E+10,      /* I = 96 */
(PID.TID 0000.0001)                 9.071447638299399E+10,      /* I = 97 */
(PID.TID 0000.0001)                 9.085012105610597E+10,      /* I = 98 */
(PID.TID 0000.0001)                 9.125179254955583E+10,      /* I = 99 */
(PID.TID 0000.0001)      . . .
(PID.TID 0000.0001)                 9.190392048045309E+10,      /* I =190 */
(PID.TID 0000.0001)                 9.125179254954683E+10,      /* I =191 */
(PID.TID 0000.0001)                 9.085012105606993E+10,      /* I =192 */
(PID.TID 0000.0001)                 1.216690346714270E+10,      /* I =193 */
(PID.TID 0000.0001)                 1.974052138506315E+10,      /* I =194 */
(PID.TID 0000.0001)                 2.943712825252015E+10,      /* I =195 */
(PID.TID 0000.0001)      . . .
(PID.TID 0000.0001)                 3.801790263325260E+10,      /* I =286 */
(PID.TID 0000.0001)                 2.943712825251114E+10,      /* I =287 */
(PID.TID 0000.0001)                 1.974052138509018E+10,      /* I =288 */
(PID.TID 0000.0001)                 9.071447638299399E+10,      /* I =289 */
(PID.TID 0000.0001)                 9.085012105610597E+10,      /* I =290 */
(PID.TID 0000.0001)                 9.125179254955583E+10,      /* I =291 */
(PID.TID 0000.0001)      . . .
(PID.TID 0000.0001)                 9.190392048045309E+10,      /* I =382 */
(PID.TID 0000.0001)                 9.125179254954683E+10,      /* I =383 */
(PID.TID 0000.0001)                 9.085012105606993E+10       /* I =384 */
(PID.TID 0000.0001)     ;
(PID.TID 0000.0001) rAw =  /* rAw(1,:,1,:) ( units: m^2 ) */
(PID.TID 0000.0001)                 1.216690346714270E+10,      /* J =  1 */
(PID.TID 0000.0001)                 2.390126200743558E+10,      /* J =  2 */
(PID.TID 0000.0001)                 3.341968103208270E+10,      /* J =  3 */
(PID.TID 0000.0001)                 4.168532893152940E+10,      /* J =  4 */
(PID.TID 0000.0001)                 4.909074590409593E+10,      /* J =  5 */
(PID.TID 0000.0001)                 5.581203765722643E+10,      /* J =  6 */
(PID.TID 0000.0001)                 6.193257577506788E+10,      /* J =  7 */
(PID.TID 0000.0001)                 6.748840226738273E+10,      /* J =  8 */
(PID.TID 0000.0001)                 7.248875782324815E+10,      /* J =  9 */
(PID.TID 0000.0001)                 7.692702995909871E+10,      /* J = 10 */
(PID.TID 0000.0001)                 8.078743937057304E+10,      /* J = 11 */
(PID.TID 0000.0001)                 8.404959656062837E+10,      /* J = 12 */
(PID.TID 0000.0001)                 8.669186205742538E+10,      /* J = 13 */
(PID.TID 0000.0001)                 8.869393350723613E+10,      /* J = 14 */
(PID.TID 0000.0001)                 9.003884657168852E+10,      /* J = 15 */
(PID.TID 0000.0001)                 9.071447638299399E+10       /* J = 16 */
(PID.TID 0000.0001)     ;
(PID.TID 0000.0001) rAs =  /* rAs(:,1,:,1) ( units: m^2 ) */
(PID.TID 0000.0001)                 1.216690346714270E+10,      /* I =  1 */
(PID.TID 0000.0001)                 2.390126200743558E+10,      /* I =  2 */
(PID.TID 0000.0001)                 3.341968103208270E+10,      /* I =  3 */
(PID.TID 0000.0001)      . . .
(PID.TID 0000.0001)                 3.341968103208270E+10,      /* I = 94 */
(PID.TID 0000.0001)                 2.390126200743558E+10,      /* I = 95 */
(PID.TID 0000.0001)                 1.216690346714270E+10,      /* I = 96 */
(PID.TID 0000.0001)                 9.083293515008307E+10,      /* I = 97 */
(PID.TID 0000.0001)                 9.110170898494536E+10,      /* I = 98 */
(PID.TID 0000.0001)                 9.162886297688426E+10,      /* I = 99 */
(PID.TID 0000.0001)      . . .
(PID.TID 0000.0001)                 9.162886297688426E+10,      /* I =190 */
(PID.TID 0000.0001)                 9.110170898494536E+10,      /* I =191 */
(PID.TID 0000.0001)                 9.083293515008307E+10,      /* I =192 */
(PID.TID 0000.0001)                 1.216690346714270E+10,      /* I =193 */
(PID.TID 0000.0001)                 2.390126200743558E+10,      /* I =194 */
(PID.TID 0000.0001)                 3.341968103208270E+10,      /* I =195 */
(PID.TID 0000.0001)      . . .
(PID.TID 0000.0001)                 3.341968103208270E+10,      /* I =286 */
(PID.TID 0000.0001)                 2.390126200743558E+10,      /* I =287 */
(PID.TID 0000.0001)                 1.216690346714270E+10,      /* I =288 */
(PID.TID 0000.0001)                 9.083293515008307E+10,      /* I =289 */
(PID.TID 0000.0001)                 9.110170898494536E+10,      /* I =290 */
(PID.TID 0000.0001)                 9.162886297688426E+10,      /* I =291 */
(PID.TID 0000.0001)      . . .
(PID.TID 0000.0001)                 9.162886297688426E+10,      /* I =382 */
(PID.TID 0000.0001)                 9.110170898494536E+10,      /* I =383 */
(PID.TID 0000.0001)                 9.083293515008307E+10       /* I =384 */
(PID.TID 0000.0001)     ;
(PID.TID 0000.0001) rAs =  /* rAs(1,:,1,:) ( units: m^2 ) */
(PID.TID 0000.0001)                 1.216690346714270E+10,      /* J =  1 */
(PID.TID 0000.0001)                 1.974052138506315E+10,      /* J =  2 */
(PID.TID 0000.0001)                 2.943712825252015E+10,      /* J =  3 */
(PID.TID 0000.0001)                 3.801790263324359E+10,      /* J =  4 */
(PID.TID 0000.0001)                 4.571243814189866E+10,      /* J =  5 */
(PID.TID 0000.0001)                 5.269930713599979E+10,      /* J =  6 */
(PID.TID 0000.0001)                 5.907428494299063E+10,      /* J =  7 */
(PID.TID 0000.0001)                 6.488320895111514E+10,      /* J =  8 */
(PID.TID 0000.0001)                 7.014205907741882E+10,      /* J =  9 */
(PID.TID 0000.0001)                 7.484854821847499E+10,      /* J = 10 */
(PID.TID 0000.0001)                 7.898934631431560E+10,      /* J = 11 */
(PID.TID 0000.0001)                 8.254500894894537E+10,      /* J = 12 */
(PID.TID 0000.0001)                 8.549360686473492E+10,      /* J = 13 */
(PID.TID 0000.0001)                 8.781353403175085E+10,      /* J = 14 */
(PID.TID 0000.0001)                 8.948571540392021E+10,      /* J = 15 */
(PID.TID 0000.0001)                 9.049530583086168E+10       /* J = 16 */
(PID.TID 0000.0001)     ;
(PID.TID 0000.0001) globalArea = /* Integrated horizontal Area (m^2) */
(PID.TID 0000.0001)                 3.638867375081599E+14
(PID.TID 0000.0001)     ;
(PID.TID 0000.0001) hasWetCSCorners = /* Domain contains CS corners (True/False) */
(PID.TID 0000.0001)                   T
(PID.TID 0000.0001)     ;
(PID.TID 0000.0001) // =======================================================
(PID.TID 0000.0001) // End of Model config. summary
(PID.TID 0000.0001) // =======================================================
(PID.TID 0000.0001) 
(PID.TID 0000.0001) == Packages configuration : Check & print summary ==
(PID.TID 0000.0001) 
(PID.TID 0000.0001) GGL90_CHECK: #define ALLOW_GGL90
(PID.TID 0000.0001) GMREDI_CHECK: #define GMREDI
(PID.TID 0000.0001) GM_AdvForm =     /* if FALSE => use SkewFlux Form */
(PID.TID 0000.0001)                   T
(PID.TID 0000.0001)     ;
(PID.TID 0000.0001) GM_InMomAsStress = /* if TRUE => apply as Eddy Stress */
(PID.TID 0000.0001)                   F
(PID.TID 0000.0001)     ;
(PID.TID 0000.0001) GM_AdvSeparate = /* Calc Bolus & Euler Adv. separately */
(PID.TID 0000.0001)                   F
(PID.TID 0000.0001)     ;
(PID.TID 0000.0001) GM_ExtraDiag =   /* Tensor Extra Diag (line 1&2) non 0 */
(PID.TID 0000.0001)                   T
(PID.TID 0000.0001)     ;
(PID.TID 0000.0001) GM_isopycK =    /* Background Isopyc. Diffusivity [m^2/s] */
(PID.TID 0000.0001)                 1.000000000000000E+03
(PID.TID 0000.0001)     ;
(PID.TID 0000.0001) GM_skewflx*K =  /* Background GM_SkewFlx Diffusivity [m^2/s] */
(PID.TID 0000.0001)                 0.000000000000000E+00
(PID.TID 0000.0001)     ;
(PID.TID 0000.0001) GM_advec*K =    /* Backg. GM-Advec(=Bolus) Diffusivity [m^2/s]*/
(PID.TID 0000.0001)                 1.000000000000000E+03
(PID.TID 0000.0001)     ;
(PID.TID 0000.0001) GM_Kmin_horiz = /* Minimum Horizontal Diffusivity [m^2/s] */
(PID.TID 0000.0001)                 1.000000000000000E+02
(PID.TID 0000.0001)     ;
(PID.TID 0000.0001) GM_Visbeck_alpha = /* Visbeck alpha coeff. [-] */
(PID.TID 0000.0001)                 0.000000000000000E+00
(PID.TID 0000.0001)     ;
(PID.TID 0000.0001) GM_Small_Number =  /* epsilon used in slope calc */
(PID.TID 0000.0001)                 9.999999999999999E-21
(PID.TID 0000.0001)     ;
(PID.TID 0000.0001) GM_slopeSqCutoff = /* Slope^2 cut-off value */
(PID.TID 0000.0001)                 1.000000000000000E+08
(PID.TID 0000.0001)     ;
(PID.TID 0000.0001) GM_taper_scheme =  /* Type of Tapering/Clipping scheme */
(PID.TID 0000.0001)               'gkw91                                   '
(PID.TID 0000.0001)     ;
(PID.TID 0000.0001) GM_maxSlope =  /* Maximum Slope (Tapering/Clipping) */
(PID.TID 0000.0001)                 4.000000000000000E-03
(PID.TID 0000.0001)     ;
(PID.TID 0000.0001) GM_facTrL2dz = /* Minimum Trans.Layer Thick. (factor of dz) */
(PID.TID 0000.0001)                 1.000000000000000E+00
(PID.TID 0000.0001)     ;
(PID.TID 0000.0001) GM_facTrL2ML = /* Max.Trans.Layer Thick. (factor of MxL Depth)*/
(PID.TID 0000.0001)                 5.000000000000000E+00
(PID.TID 0000.0001)     ;
(PID.TID 0000.0001) GM_maxTransLay = /* Maximum Transition Layer Thickness [m] */
(PID.TID 0000.0001)                 5.000000000000000E+02
(PID.TID 0000.0001)     ;
(PID.TID 0000.0001) GM_UseBVP = /* if TRUE => use bvp a la Ferrari et al. (2010) */
(PID.TID 0000.0001)                   F
(PID.TID 0000.0001)     ;
(PID.TID 0000.0001) GM_BVP_ModeNumber = /* Vertical mode number for BVP wave speed */
(PID.TID 0000.0001)                       1
(PID.TID 0000.0001)     ;
(PID.TID 0000.0001) GM_BVP_cMin = /* Minimum wave speed for BVP [m/s] */
(PID.TID 0000.0001)                 1.000000000000000E-01
(PID.TID 0000.0001)     ;
(PID.TID 0000.0001) GM_useSubMeso = /* if TRUE => use Sub-Meso param. (B.Fox-Kemper) */
(PID.TID 0000.0001)                   F
(PID.TID 0000.0001)     ;
(PID.TID 0000.0001) subMeso_Ceff = /* efficiency coeff. of Mixed-Layer Eddies [-] */
(PID.TID 0000.0001)                 7.000000000000001E-02
(PID.TID 0000.0001)     ;
(PID.TID 0000.0001) subMeso_invTau = /* inverse of Sub-Meso mixing time-scale [/s] */
(PID.TID 0000.0001)                 2.000000000000000E-06
(PID.TID 0000.0001)     ;
(PID.TID 0000.0001) subMeso_LfMin = /* minimum length-scale "Lf" [m] */
(PID.TID 0000.0001)                 1.000000000000000E+03
(PID.TID 0000.0001)     ;
(PID.TID 0000.0001) subMeso_Lmax = /* maximum grid-scale length [m] */
(PID.TID 0000.0001)                 1.100000000000000E+05
(PID.TID 0000.0001)     ;
(PID.TID 0000.0001) SEAICE_CHECK: #define ALLOW_SEAICE
(PID.TID 0000.0001) SALT_PLUME_CHECK: #define SALT_PLUME
(PID.TID 0000.0001) CTRL_CHECK: ctrl package
(PID.TID 0000.0001) COST_CHECK: cost package
(PID.TID 0000.0001) GRDCHK_CHECK: grdchk package
(PID.TID 0000.0001) GAD_CHECK: #define ALLOW_GENERIC_ADVDIFF
(PID.TID 0000.0001) // =======================================================
(PID.TID 0000.0001) // Check Model config. (CONFIG_CHECK):
(PID.TID 0000.0001) // CONFIG_CHECK : Normal End
(PID.TID 0000.0001) // =======================================================
(PID.TID 0000.0001) 
(PID.TID 0000.0001) Start initial hydrostatic pressure computation
(PID.TID 0000.0001) Pressure is predetermined for buoyancyRelation OCEANIC
(PID.TID 0000.0001) 
(PID.TID 0000.0001) // =======================================================
(PID.TID 0000.0001) // Begin MONITOR dynamic field statistics
(PID.TID 0000.0001) // =======================================================
(PID.TID 0000.0001) %MON time_tsnumber                =                     0
(PID.TID 0000.0001) %MON time_secondsf                =   0.0000000000000E+00
(PID.TID 0000.0001) %MON dynstat_eta_max              =   0.0000000000000E+00
(PID.TID 0000.0001) %MON dynstat_eta_min              =   0.0000000000000E+00
(PID.TID 0000.0001) %MON dynstat_eta_mean             =   0.0000000000000E+00
(PID.TID 0000.0001) %MON dynstat_eta_sd               =   0.0000000000000E+00
(PID.TID 0000.0001) %MON dynstat_eta_del2             =   0.0000000000000E+00
(PID.TID 0000.0001) %MON dynstat_uvel_max             =   0.0000000000000E+00
(PID.TID 0000.0001) %MON dynstat_uvel_min             =   0.0000000000000E+00
(PID.TID 0000.0001) %MON dynstat_uvel_mean            =   0.0000000000000E+00
(PID.TID 0000.0001) %MON dynstat_uvel_sd              =   0.0000000000000E+00
(PID.TID 0000.0001) %MON dynstat_uvel_del2            =   0.0000000000000E+00
(PID.TID 0000.0001) %MON dynstat_vvel_max             =   0.0000000000000E+00
(PID.TID 0000.0001) %MON dynstat_vvel_min             =   0.0000000000000E+00
(PID.TID 0000.0001) %MON dynstat_vvel_mean            =   0.0000000000000E+00
(PID.TID 0000.0001) %MON dynstat_vvel_sd              =   0.0000000000000E+00
(PID.TID 0000.0001) %MON dynstat_vvel_del2            =   0.0000000000000E+00
(PID.TID 0000.0001) %MON dynstat_wvel_max             =   0.0000000000000E+00
(PID.TID 0000.0001) %MON dynstat_wvel_min             =   0.0000000000000E+00
(PID.TID 0000.0001) %MON dynstat_wvel_mean            =   0.0000000000000E+00
(PID.TID 0000.0001) %MON dynstat_wvel_sd              =   0.0000000000000E+00
(PID.TID 0000.0001) %MON dynstat_wvel_del2            =   0.0000000000000E+00
(PID.TID 0000.0001) %MON dynstat_theta_max            =   3.0250358581543E+01
(PID.TID 0000.0001) %MON dynstat_theta_min            =  -1.9540429115295E+00
(PID.TID 0000.0001) %MON dynstat_theta_mean           =   3.5950366197190E+00
(PID.TID 0000.0001) %MON dynstat_theta_sd             =   4.4462651796052E+00
(PID.TID 0000.0001) %MON dynstat_theta_del2           =   1.6262218662243E-03
(PID.TID 0000.0001) %MON dynstat_salt_max             =   4.1000000000000E+01
(PID.TID 0000.0001) %MON dynstat_salt_min             =   2.9000000000000E+01
(PID.TID 0000.0001) %MON dynstat_salt_mean            =   3.4726326276874E+01
(PID.TID 0000.0001) %MON dynstat_salt_sd              =   4.0085357985152E-01
(PID.TID 0000.0001) %MON dynstat_salt_del2            =   3.3800732881832E-04
(PID.TID 0000.0001) %MON forcing_qnet_max             =   0.0000000000000E+00
(PID.TID 0000.0001) %MON forcing_qnet_min             =   0.0000000000000E+00
(PID.TID 0000.0001) %MON forcing_qnet_mean            =   0.0000000000000E+00
(PID.TID 0000.0001) %MON forcing_qnet_sd              =   0.0000000000000E+00
(PID.TID 0000.0001) %MON forcing_qnet_del2            =   0.0000000000000E+00
(PID.TID 0000.0001) %MON forcing_qsw_max              =   0.0000000000000E+00
(PID.TID 0000.0001) %MON forcing_qsw_min              =   0.0000000000000E+00
(PID.TID 0000.0001) %MON forcing_qsw_mean             =   0.0000000000000E+00
(PID.TID 0000.0001) %MON forcing_qsw_sd               =   0.0000000000000E+00
(PID.TID 0000.0001) %MON forcing_qsw_del2             =   0.0000000000000E+00
(PID.TID 0000.0001) %MON forcing_empmr_max            =   0.0000000000000E+00
(PID.TID 0000.0001) %MON forcing_empmr_min            =   0.0000000000000E+00
(PID.TID 0000.0001) %MON forcing_empmr_mean           =   0.0000000000000E+00
(PID.TID 0000.0001) %MON forcing_empmr_sd             =   0.0000000000000E+00
(PID.TID 0000.0001) %MON forcing_empmr_del2           =   0.0000000000000E+00
(PID.TID 0000.0001) %MON forcing_fu_max               =   0.0000000000000E+00
(PID.TID 0000.0001) %MON forcing_fu_min               =   0.0000000000000E+00
(PID.TID 0000.0001) %MON forcing_fu_mean              =   0.0000000000000E+00
(PID.TID 0000.0001) %MON forcing_fu_sd                =   0.0000000000000E+00
(PID.TID 0000.0001) %MON forcing_fu_del2              =   0.0000000000000E+00
(PID.TID 0000.0001) %MON forcing_fv_max               =   0.0000000000000E+00
(PID.TID 0000.0001) %MON forcing_fv_min               =   0.0000000000000E+00
(PID.TID 0000.0001) %MON forcing_fv_mean              =   0.0000000000000E+00
(PID.TID 0000.0001) %MON forcing_fv_sd                =   0.0000000000000E+00
(PID.TID 0000.0001) %MON forcing_fv_del2              =   0.0000000000000E+00
(PID.TID 0000.0001) %MON advcfl_uvel_max              =   0.0000000000000E+00
(PID.TID 0000.0001) %MON advcfl_vvel_max              =   0.0000000000000E+00
(PID.TID 0000.0001) %MON advcfl_wvel_max              =   0.0000000000000E+00
(PID.TID 0000.0001) %MON advcfl_W_hf_max              =   0.0000000000000E+00
(PID.TID 0000.0001) %MON pe_b_mean                    =   0.0000000000000E+00
(PID.TID 0000.0001) %MON ke_max                       =   0.0000000000000E+00
(PID.TID 0000.0001) %MON ke_mean                      =   0.0000000000000E+00
(PID.TID 0000.0001) %MON ke_vol                       =   1.3542980227617E+18
(PID.TID 0000.0001) %MON vort_r_min                   =   0.0000000000000E+00
(PID.TID 0000.0001) %MON vort_r_max                   =   0.0000000000000E+00
(PID.TID 0000.0001) %MON vort_a_mean                  =  -1.9720793743754E-05
(PID.TID 0000.0001) %MON vort_a_sd                    =   7.5194714484209E-05
(PID.TID 0000.0001) %MON vort_p_mean                  =  -2.3385747453960E-05
(PID.TID 0000.0001) %MON vort_p_sd                    =   1.1230106999018E-04
(PID.TID 0000.0001) %MON surfExpan_theta_mean         =   0.0000000000000E+00
(PID.TID 0000.0001) %MON surfExpan_salt_mean          =   0.0000000000000E+00
(PID.TID 0000.0001) // =======================================================
(PID.TID 0000.0001) // End MONITOR dynamic field statistics
(PID.TID 0000.0001) // =======================================================
(PID.TID 0000.0001) // =======================================================
(PID.TID 0000.0001) // Begin MONITOR SEAICE statistics
(PID.TID 0000.0001) // =======================================================
(PID.TID 0000.0001) %MON seaice_tsnumber              =                     0
(PID.TID 0000.0001) %MON seaice_time_sec              =   0.0000000000000E+00
(PID.TID 0000.0001) %MON seaice_uice_max              =   0.0000000000000E+00
(PID.TID 0000.0001) %MON seaice_uice_min              =   0.0000000000000E+00
(PID.TID 0000.0001) %MON seaice_uice_mean             =   0.0000000000000E+00
(PID.TID 0000.0001) %MON seaice_uice_sd               =   0.0000000000000E+00
(PID.TID 0000.0001) %MON seaice_uice_del2             =   0.0000000000000E+00
(PID.TID 0000.0001) %MON seaice_vice_max              =   0.0000000000000E+00
(PID.TID 0000.0001) %MON seaice_vice_min              =   0.0000000000000E+00
(PID.TID 0000.0001) %MON seaice_vice_mean             =   0.0000000000000E+00
(PID.TID 0000.0001) %MON seaice_vice_sd               =   0.0000000000000E+00
(PID.TID 0000.0001) %MON seaice_vice_del2             =   0.0000000000000E+00
(PID.TID 0000.0001) %MON seaice_area_max              =   0.0000000000000E+00
(PID.TID 0000.0001) %MON seaice_area_min              =   0.0000000000000E+00
(PID.TID 0000.0001) %MON seaice_area_mean             =   0.0000000000000E+00
(PID.TID 0000.0001) %MON seaice_area_sd               =   0.0000000000000E+00
(PID.TID 0000.0001) %MON seaice_area_del2             =   0.0000000000000E+00
(PID.TID 0000.0001) %MON seaice_heff_max              =   0.0000000000000E+00
(PID.TID 0000.0001) %MON seaice_heff_min              =   0.0000000000000E+00
(PID.TID 0000.0001) %MON seaice_heff_mean             =   0.0000000000000E+00
(PID.TID 0000.0001) %MON seaice_heff_sd               =   0.0000000000000E+00
(PID.TID 0000.0001) %MON seaice_heff_del2             =   0.0000000000000E+00
(PID.TID 0000.0001) %MON seaice_hsnow_max             =   0.0000000000000E+00
(PID.TID 0000.0001) %MON seaice_hsnow_min             =   0.0000000000000E+00
(PID.TID 0000.0001) %MON seaice_hsnow_mean            =   0.0000000000000E+00
(PID.TID 0000.0001) %MON seaice_hsnow_sd              =   0.0000000000000E+00
(PID.TID 0000.0001) %MON seaice_hsnow_del2            =   0.0000000000000E+00
(PID.TID 0000.0001) // =======================================================
(PID.TID 0000.0001) // End MONITOR SEAICE statistics
(PID.TID 0000.0001) // =======================================================
(PID.TID 0000.0001) whio : create lev 3 rec   9
(PID.TID 0000.0001) whio : write lev 3 rec   1
(PID.TID 0000.0001) whio : create lev 2 rec   9
(PID.TID 0000.0001) // =======================================================
(PID.TID 0000.0001) // Begin MONITOR EXF statistics
(PID.TID 0000.0001) // =======================================================
(PID.TID 0000.0001) %MON exf_tsnumber                 =                     0
(PID.TID 0000.0001) %MON exf_time_sec                 =   0.0000000000000E+00
(PID.TID 0000.0001) %MON exf_ustress_max              =   8.9700883039041E-01
(PID.TID 0000.0001) %MON exf_ustress_min              =  -6.7360440444164E-01
(PID.TID 0000.0001) %MON exf_ustress_mean             =   3.6754745102044E-03
(PID.TID 0000.0001) %MON exf_ustress_sd               =   1.1803573732928E-01
(PID.TID 0000.0001) %MON exf_ustress_del2             =   1.4188076130755E-03
(PID.TID 0000.0001) %MON exf_vstress_max              =   1.1983185232533E+00
(PID.TID 0000.0001) %MON exf_vstress_min              =  -1.5218364825930E+00
(PID.TID 0000.0001) %MON exf_vstress_mean             =  -8.5800551340269E-03
(PID.TID 0000.0001) %MON exf_vstress_sd               =   1.2861622409491E-01
(PID.TID 0000.0001) %MON exf_vstress_del2             =   1.4909506845531E-03
(PID.TID 0000.0001) %MON exf_hflux_max                =   1.1282628687291E+03
(PID.TID 0000.0001) %MON exf_hflux_min                =  -2.7947514099506E+02
(PID.TID 0000.0001) %MON exf_hflux_mean               =  -9.2696504288185E+00
(PID.TID 0000.0001) %MON exf_hflux_sd                 =   1.8048092514545E+02
(PID.TID 0000.0001) %MON exf_hflux_del2               =   1.3969157161957E+00
(PID.TID 0000.0001) %MON exf_sflux_max                =   1.5537665760406E-07
(PID.TID 0000.0001) %MON exf_sflux_min                =  -2.2158173036888E-07
(PID.TID 0000.0001) %MON exf_sflux_mean               =  -8.7145175274591E-10
(PID.TID 0000.0001) %MON exf_sflux_sd                 =   4.4081938335969E-08
(PID.TID 0000.0001) %MON exf_sflux_del2               =   4.0371414959680E-10
(PID.TID 0000.0001) %MON exf_uwind_max                =   1.9640946601489E+01
(PID.TID 0000.0001) %MON exf_uwind_min                =  -1.7785952278258E+01
(PID.TID 0000.0001) %MON exf_uwind_mean               =  -4.3134311120138E-01
(PID.TID 0000.0001) %MON exf_uwind_sd                 =   5.6370424739594E+00
(PID.TID 0000.0001) %MON exf_uwind_del2               =   6.6014219458803E-02
(PID.TID 0000.0001) %MON exf_vwind_max                =   2.0841785711152E+01
(PID.TID 0000.0001) %MON exf_vwind_min                =  -2.2594239391581E+01
(PID.TID 0000.0001) %MON exf_vwind_mean               =  -9.7543830035292E-01
(PID.TID 0000.0001) %MON exf_vwind_sd                 =   5.9454213893467E+00
(PID.TID 0000.0001) %MON exf_vwind_del2               =   6.9977095429903E-02
(PID.TID 0000.0001) %MON exf_wspeed_max               =   2.4904970813513E+01
(PID.TID 0000.0001) %MON exf_wspeed_min               =   6.7553451224487E-02
(PID.TID 0000.0001) %MON exf_wspeed_mean              =   7.4236680848160E+00
(PID.TID 0000.0001) %MON exf_wspeed_sd                =   3.6264269293595E+00
(PID.TID 0000.0001) %MON exf_wspeed_del2              =   8.2810420238463E-02
(PID.TID 0000.0001) %MON exf_atemp_max                =   3.0380077479188E+02
(PID.TID 0000.0001) %MON exf_atemp_min                =   2.2961610441589E+02
(PID.TID 0000.0001) %MON exf_atemp_mean               =   2.8916463743923E+02
(PID.TID 0000.0001) %MON exf_atemp_sd                 =   1.2969631239171E+01
(PID.TID 0000.0001) %MON exf_atemp_del2               =   1.5112807616971E-01
(PID.TID 0000.0001) %MON exf_aqh_max                  =   2.0626060943877E-02
(PID.TID 0000.0001) %MON exf_aqh_min                  =  -1.9900001643691E-04
(PID.TID 0000.0001) %MON exf_aqh_mean                 =   1.1045130455534E-02
(PID.TID 0000.0001) %MON exf_aqh_sd                   =   5.6648776272846E-03
(PID.TID 0000.0001) %MON exf_aqh_del2                 =   8.9743445983937E-05
(PID.TID 0000.0001) %MON exf_lwflux_max               =   1.8551145479938E+02
(PID.TID 0000.0001) %MON exf_lwflux_min               =  -1.4016155746328E+01
(PID.TID 0000.0001) %MON exf_lwflux_mean              =   5.5327592351259E+01
(PID.TID 0000.0001) %MON exf_lwflux_sd                =   2.6007536791914E+01
(PID.TID 0000.0001) %MON exf_lwflux_del2              =   5.1626193018818E-01
(PID.TID 0000.0001) %MON exf_precip_max               =   2.3851607060095E-07
(PID.TID 0000.0001) %MON exf_precip_min               =   1.8774262552163E-10
(PID.TID 0000.0001) %MON exf_precip_mean              =   3.6759511697524E-08
(PID.TID 0000.0001) %MON exf_precip_sd                =   3.5333627038814E-08
(PID.TID 0000.0001) %MON exf_precip_del2              =   4.4617653106749E-10
(PID.TID 0000.0001) %MON exf_swflux_max               =  -0.0000000000000E+00
(PID.TID 0000.0001) %MON exf_swflux_min               =  -3.4226923866784E+02
(PID.TID 0000.0001) %MON exf_swflux_mean              =  -1.7913393163562E+02
(PID.TID 0000.0001) %MON exf_swflux_sd                =   8.2785743953815E+01
(PID.TID 0000.0001) %MON exf_swflux_del2              =   5.2173441400096E-01
(PID.TID 0000.0001) %MON exf_evap_max                 =   2.6683821478379E-07
(PID.TID 0000.0001) %MON exf_evap_min                 =  -2.3131200997843E-08
(PID.TID 0000.0001) %MON exf_evap_mean                =   3.5888059944778E-08
(PID.TID 0000.0001) %MON exf_evap_sd                  =   2.8752382771076E-08
(PID.TID 0000.0001) %MON exf_evap_del2                =   4.6129136094912E-10
(PID.TID 0000.0001) %MON exf_swdown_max               =   3.6645528765293E+02
(PID.TID 0000.0001) %MON exf_swdown_min               =   0.0000000000000E+00
(PID.TID 0000.0001) %MON exf_swdown_mean              =   1.9179221802528E+02
(PID.TID 0000.0001) %MON exf_swdown_sd                =   8.8635700164684E+01
(PID.TID 0000.0001) %MON exf_swdown_del2              =   1.6922260248874E+00
(PID.TID 0000.0001) %MON exf_lwdown_max               =   4.5775938210989E+02
(PID.TID 0000.0001) %MON exf_lwdown_min               =   1.2235800523318E+02
(PID.TID 0000.0001) %MON exf_lwdown_mean              =   3.5556002060118E+02
(PID.TID 0000.0001) %MON exf_lwdown_sd                =   6.0805812529823E+01
(PID.TID 0000.0001) %MON exf_lwdown_del2              =   2.6517557802706E+00
(PID.TID 0000.0001) // =======================================================
(PID.TID 0000.0001) // End MONITOR EXF statistics
(PID.TID 0000.0001) // =======================================================
 SEAICE_LSR: Residual Initial Uice,Vice=  0.00000000E+00  0.00000000E+00
 SEAICE_LSR: Residual FrDrift U_fd,V_fd=  0.00000000E+00  0.00000000E+00
 SEAICE_LSR (ipass=   1) iters,dU,Resid=     6  1.13867396E-06  0.00000000E+00
 SEAICE_LSR (ipass=   1) iters,dV,Resid=     6  1.50948037E-06  0.00000000E+00
 SEAICE_LSR: Residual Initial Uice,Vice=  0.00000000E+00  0.00000000E+00
 SEAICE_LSR: Residual FrDrift U_fd,V_fd=  0.00000000E+00  0.00000000E+00
 SEAICE_LSR (ipass=   2) iters,dU,Resid=     6  5.41961552E-07  0.00000000E+00
 SEAICE_LSR (ipass=   2) iters,dV,Resid=     6  7.26314324E-07  0.00000000E+00
(PID.TID 0000.0001) SOLVE_FOR_PRESSURE: putPmEinXvector =    F
 cg2d: Sum(rhs),rhsMax =   3.28986887568329E+00  6.80605256987103E+00
 cg2d: Sum(rhs),rhsMax =   6.18100862039609E+00  7.25298038338555E+00
(PID.TID 0000.0001)      cg2d_init_res =   6.99555562429849E+00
(PID.TID 0000.0001)      cg2d_iters(min,last) =      -1      41
(PID.TID 0000.0001)      cg2d_last_res =   6.64181567745249E-05
(PID.TID 0000.0001) // =======================================================
(PID.TID 0000.0001) // Begin MONITOR dynamic field statistics
(PID.TID 0000.0001) // =======================================================
(PID.TID 0000.0001) %MON time_tsnumber                =                     2
(PID.TID 0000.0001) %MON time_secondsf                =   8.6400000000000E+04
(PID.TID 0000.0001) %MON dynstat_eta_max              =   8.6669772522122E-01
(PID.TID 0000.0001) %MON dynstat_eta_min              =  -9.3213882975881E-01
(PID.TID 0000.0001) %MON dynstat_eta_mean             =  -3.9497753016360E-03
(PID.TID 0000.0001) %MON dynstat_eta_sd               =   2.9016311457844E-01
(PID.TID 0000.0001) %MON dynstat_eta_del2             =   1.1644178377816E-03
(PID.TID 0000.0001) %MON dynstat_uvel_max             =   1.0637588503502E-01
(PID.TID 0000.0001) %MON dynstat_uvel_min             =  -8.9132850041687E-02
(PID.TID 0000.0001) %MON dynstat_uvel_mean            =  -1.4698785631722E-04
(PID.TID 0000.0001) %MON dynstat_uvel_sd              =   2.2554333652209E-03
(PID.TID 0000.0001) %MON dynstat_uvel_del2            =   7.8179617703754E-06
(PID.TID 0000.0001) %MON dynstat_vvel_max             =   1.1963576396269E-01
(PID.TID 0000.0001) %MON dynstat_vvel_min             =  -1.8342461273436E-01
(PID.TID 0000.0001) %MON dynstat_vvel_mean            =   3.5532942071066E-05
(PID.TID 0000.0001) %MON dynstat_vvel_sd              =   2.4279084145917E-03
(PID.TID 0000.0001) %MON dynstat_vvel_del2            =   8.2402927968137E-06
(PID.TID 0000.0001) %MON dynstat_wvel_max             =   3.1731973182481E-04
(PID.TID 0000.0001) %MON dynstat_wvel_min             =  -2.0849979876207E-04
(PID.TID 0000.0001) %MON dynstat_wvel_mean            =  -6.2895011467965E-08
(PID.TID 0000.0001) %MON dynstat_wvel_sd              =   8.2517702471238E-06
(PID.TID 0000.0001) %MON dynstat_wvel_del2            =   3.1394935539385E-08
(PID.TID 0000.0001) %MON dynstat_theta_max            =   3.0128623020926E+01
(PID.TID 0000.0001) %MON dynstat_theta_min            =  -1.9357380193516E+00
(PID.TID 0000.0001) %MON dynstat_theta_mean           =   3.5950707098126E+00
(PID.TID 0000.0001) %MON dynstat_theta_sd             =   4.4462802270069E+00
(PID.TID 0000.0001) %MON dynstat_theta_del2           =   1.6144172054952E-03
(PID.TID 0000.0001) %MON dynstat_salt_max             =   4.1002749389902E+01
(PID.TID 0000.0001) %MON dynstat_salt_min             =   2.8989773076771E+01
(PID.TID 0000.0001) %MON dynstat_salt_mean            =   3.4726355917830E+01
(PID.TID 0000.0001) %MON dynstat_salt_sd              =   4.0051730299545E-01
(PID.TID 0000.0001) %MON dynstat_salt_del2            =   3.3520345495765E-04
(PID.TID 0000.0001) %MON forcing_qnet_max             =   9.1792008590141E+02
(PID.TID 0000.0001) %MON forcing_qnet_min             =  -2.4329520561454E+02
(PID.TID 0000.0001) %MON forcing_qnet_mean            =  -1.4340210750129E+01
(PID.TID 0000.0001) %MON forcing_qnet_sd              =   1.3172684626564E+02
(PID.TID 0000.0001) %MON forcing_qnet_del2            =   9.4192141252938E-01
(PID.TID 0000.0001) %MON forcing_qsw_max              =   0.0000000000000E+00
(PID.TID 0000.0001) %MON forcing_qsw_min              =  -3.3912495189182E+02
(PID.TID 0000.0001) %MON forcing_qsw_mean             =  -1.7937077924452E+02
(PID.TID 0000.0001) %MON forcing_qsw_sd               =   8.0667675653022E+01
(PID.TID 0000.0001) %MON forcing_qsw_del2             =   4.1400799700773E-01
(PID.TID 0000.0001) %MON forcing_empmr_max            =   2.1564215775460E-03
(PID.TID 0000.0001) %MON forcing_empmr_min            =  -2.1788926788681E-04
(PID.TID 0000.0001) %MON forcing_empmr_mean           =   4.3820064587153E-05
(PID.TID 0000.0001) %MON forcing_empmr_sd             =   2.4884986983716E-04
(PID.TID 0000.0001) %MON forcing_empmr_del2           =   2.1250570781112E-06
(PID.TID 0000.0001) %MON forcing_fu_max               =   7.8391713648334E-01
(PID.TID 0000.0001) %MON forcing_fu_min               =  -6.9601882733209E-01
(PID.TID 0000.0001) %MON forcing_fu_mean              =   2.5531316770085E-03
(PID.TID 0000.0001) %MON forcing_fu_sd                =   1.0562947363161E-01
(PID.TID 0000.0001) %MON forcing_fu_del2              =   9.7012575373678E-04
(PID.TID 0000.0001) %MON forcing_fv_max               =   9.3395725698133E-01
(PID.TID 0000.0001) %MON forcing_fv_min               =  -1.3861303083385E+00
(PID.TID 0000.0001) %MON forcing_fv_mean              =  -9.8806495391605E-03
(PID.TID 0000.0001) %MON forcing_fv_sd                =   1.1926937681505E-01
(PID.TID 0000.0001) %MON forcing_fv_del2              =   1.0072530695556E-03
(PID.TID 0000.0001) %MON advcfl_uvel_max              =   2.3169082240021E-02
(PID.TID 0000.0001) %MON advcfl_vvel_max              =   2.5813942017113E-02
(PID.TID 0000.0001) %MON advcfl_wvel_max              =   1.8618036424296E-01
(PID.TID 0000.0001) %MON advcfl_W_hf_max              =   1.9445680110648E-01
(PID.TID 0000.0001) %MON pe_b_mean                    =   1.0960520985202E-04
(PID.TID 0000.0001) %MON ke_max                       =   1.5428790436837E-02
(PID.TID 0000.0001) %MON ke_mean                      =   5.0661676163804E-06
(PID.TID 0000.0001) %MON ke_vol                       =   1.3542972549246E+18
(PID.TID 0000.0001) %MON vort_r_min                   =  -7.4988125100759E-07
(PID.TID 0000.0001) %MON vort_r_max                   =   4.6407258190428E-07
(PID.TID 0000.0001) %MON vort_a_mean                  =  -1.9720793743754E-05
(PID.TID 0000.0001) %MON vort_a_sd                    =   7.5194649189959E-05
(PID.TID 0000.0001) %MON vort_p_mean                  =  -2.3385753307728E-05
(PID.TID 0000.0001) %MON vort_p_sd                    =   1.1230257116100E-04
(PID.TID 0000.0001) %MON surfExpan_theta_mean         =   4.8103453792477E-06
(PID.TID 0000.0001) %MON surfExpan_salt_mean          =   1.4511435598900E-07
(PID.TID 0000.0001) // =======================================================
(PID.TID 0000.0001) // End MONITOR dynamic field statistics
(PID.TID 0000.0001) // =======================================================
(PID.TID 0000.0001) // =======================================================
(PID.TID 0000.0001) // Begin MONITOR SEAICE statistics
(PID.TID 0000.0001) // =======================================================
(PID.TID 0000.0001) %MON seaice_tsnumber              =                     2
(PID.TID 0000.0001) %MON seaice_time_sec              =   8.6400000000000E+04
(PID.TID 0000.0001) %MON seaice_uice_max              =   2.5368484016215E-01
(PID.TID 0000.0001) %MON seaice_uice_min              =  -2.1503240447571E-01
(PID.TID 0000.0001) %MON seaice_uice_mean             =  -1.0409076953789E-02
(PID.TID 0000.0001) %MON seaice_uice_sd               =   8.7446706871036E-02
(PID.TID 0000.0001) %MON seaice_uice_del2             =   7.4036077910023E-04
(PID.TID 0000.0001) %MON seaice_vice_max              =   1.9854192175069E-01
(PID.TID 0000.0001) %MON seaice_vice_min              =  -2.1916844339736E-01
(PID.TID 0000.0001) %MON seaice_vice_mean             =  -2.1555319864725E-02
(PID.TID 0000.0001) %MON seaice_vice_sd               =   9.1850026031442E-02
(PID.TID 0000.0001) %MON seaice_vice_del2             =   7.4200216615819E-04
(PID.TID 0000.0001) %MON seaice_area_max              =   5.0621549504704E-01
(PID.TID 0000.0001) %MON seaice_area_min              =   0.0000000000000E+00
(PID.TID 0000.0001) %MON seaice_area_mean             =   9.5399254775425E-03
(PID.TID 0000.0001) %MON seaice_area_sd               =   5.1441043848952E-02
(PID.TID 0000.0001) %MON seaice_area_del2             =   4.3138108401333E-04
(PID.TID 0000.0001) %MON seaice_heff_max              =   2.5775768928118E-01
(PID.TID 0000.0001) %MON seaice_heff_min              =   0.0000000000000E+00
(PID.TID 0000.0001) %MON seaice_heff_mean             =   4.4643596824353E-03
(PID.TID 0000.0001) %MON seaice_heff_sd               =   2.4504399248809E-02
(PID.TID 0000.0001) %MON seaice_heff_del2             =   2.0938524964545E-04
(PID.TID 0000.0001) %MON seaice_hsnow_max             =   8.5643873723282E-04
(PID.TID 0000.0001) %MON seaice_hsnow_min             =   0.0000000000000E+00
(PID.TID 0000.0001) %MON seaice_hsnow_mean            =   5.3074980828590E-06
(PID.TID 0000.0001) %MON seaice_hsnow_sd              =   3.7803166925591E-05
(PID.TID 0000.0001) %MON seaice_hsnow_del2            =   5.0348670356165E-07
(PID.TID 0000.0001) // =======================================================
(PID.TID 0000.0001) // End MONITOR SEAICE statistics
(PID.TID 0000.0001) // =======================================================
(PID.TID 0000.0001) // =======================================================
(PID.TID 0000.0001) // Begin MONITOR EXF statistics
(PID.TID 0000.0001) // =======================================================
(PID.TID 0000.0001) %MON exf_tsnumber                 =                     2
(PID.TID 0000.0001) %MON exf_time_sec                 =   8.6400000000000E+04
(PID.TID 0000.0001) %MON exf_ustress_max              =   1.1663965865468E+00
(PID.TID 0000.0001) %MON exf_ustress_min              =  -6.4614688372945E-01
(PID.TID 0000.0001) %MON exf_ustress_mean             =   1.0406817766246E-03
(PID.TID 0000.0001) %MON exf_ustress_sd               =   1.0387819089837E-01
(PID.TID 0000.0001) %MON exf_ustress_del2             =   1.2556705341962E-03
(PID.TID 0000.0001) %MON exf_vstress_max              =   9.1590348963877E-01
(PID.TID 0000.0001) %MON exf_vstress_min              =  -1.1040208440701E+00
(PID.TID 0000.0001) %MON exf_vstress_mean             =  -1.2734382945814E-02
(PID.TID 0000.0001) %MON exf_vstress_sd               =   1.1306156236433E-01
(PID.TID 0000.0001) %MON exf_vstress_del2             =   1.2157304946160E-03
(PID.TID 0000.0001) %MON exf_hflux_max                =   9.5151694306956E+02
(PID.TID 0000.0001) %MON exf_hflux_min                =  -2.6637525323252E+02
(PID.TID 0000.0001) %MON exf_hflux_mean               =  -1.5948263266040E+01
(PID.TID 0000.0001) %MON exf_hflux_sd                 =   1.7111531977045E+02
(PID.TID 0000.0001) %MON exf_hflux_del2               =   1.2759700269132E+00
(PID.TID 0000.0001) %MON exf_sflux_max                =   1.5443132118734E-07
(PID.TID 0000.0001) %MON exf_sflux_min                =  -2.1422399069303E-07
(PID.TID 0000.0001) %MON exf_sflux_mean               =  -2.4239197869896E-09
(PID.TID 0000.0001) %MON exf_sflux_sd                 =   4.2753342628430E-08
(PID.TID 0000.0001) %MON exf_sflux_del2               =   3.9145630736950E-10
(PID.TID 0000.0001) %MON exf_uwind_max                =   2.2126013339355E+01
(PID.TID 0000.0001) %MON exf_uwind_min                =  -1.7149979005402E+01
(PID.TID 0000.0001) %MON exf_uwind_mean               =  -3.2446969571431E-01
(PID.TID 0000.0001) %MON exf_uwind_sd                 =   5.4819695256646E+00
(PID.TID 0000.0001) %MON exf_uwind_del2               =   4.9887771042050E-02
(PID.TID 0000.0001) %MON exf_vwind_max                =   1.9573881492593E+01
(PID.TID 0000.0001) %MON exf_vwind_min                =  -1.9892348849733E+01
(PID.TID 0000.0001) %MON exf_vwind_mean               =  -1.1392379587482E+00
(PID.TID 0000.0001) %MON exf_vwind_sd                 =   5.8293021844559E+00
(PID.TID 0000.0001) %MON exf_vwind_del2               =   4.9979846322799E-02
(PID.TID 0000.0001) %MON exf_wspeed_max               =   2.2352511500498E+01
(PID.TID 0000.0001) %MON exf_wspeed_min               =   1.7006185622543E-01
(PID.TID 0000.0001) %MON exf_wspeed_mean              =   7.3140053845017E+00
(PID.TID 0000.0001) %MON exf_wspeed_sd                =   3.4556074406083E+00
(PID.TID 0000.0001) %MON exf_wspeed_del2              =   8.1341849137419E-02
(PID.TID 0000.0001) %MON exf_atemp_max                =   3.0461490964809E+02
(PID.TID 0000.0001) %MON exf_atemp_min                =   2.2916699661508E+02
(PID.TID 0000.0001) %MON exf_atemp_mean               =   2.8924742922389E+02
(PID.TID 0000.0001) %MON exf_atemp_sd                 =   1.2908087591946E+01
(PID.TID 0000.0001) %MON exf_atemp_del2               =   1.5274372219215E-01
(PID.TID 0000.0001) %MON exf_aqh_max                  =   2.2265914606890E-02
(PID.TID 0000.0001) %MON exf_aqh_min                  =  -1.9900001643691E-04
(PID.TID 0000.0001) %MON exf_aqh_mean                 =   1.1096762057963E-02
(PID.TID 0000.0001) %MON exf_aqh_sd                   =   5.6999348205320E-03
(PID.TID 0000.0001) %MON exf_aqh_del2                 =   9.0276149510162E-05
(PID.TID 0000.0001) %MON exf_lwflux_max               =   1.6821146289763E+02
(PID.TID 0000.0001) %MON exf_lwflux_min               =  -4.2667659695229E-01
(PID.TID 0000.0001) %MON exf_lwflux_mean              =   5.4857815139107E+01
(PID.TID 0000.0001) %MON exf_lwflux_sd                =   2.5705429241315E+01
(PID.TID 0000.0001) %MON exf_lwflux_del2              =   4.9883818772573E-01
(PID.TID 0000.0001) %MON exf_precip_max               =   2.3958735801686E-07
(PID.TID 0000.0001) %MON exf_precip_min               =   1.7475246391685E-10
(PID.TID 0000.0001) %MON exf_precip_mean              =   3.6812014030926E-08
(PID.TID 0000.0001) %MON exf_precip_sd                =   3.5827311010313E-08
(PID.TID 0000.0001) %MON exf_precip_del2              =   4.5104015327347E-10
(PID.TID 0000.0001) %MON exf_swflux_max               =  -0.0000000000000E+00
(PID.TID 0000.0001) %MON exf_swflux_min               =  -3.4050384852570E+02
(PID.TID 0000.0001) %MON exf_swflux_mean              =  -1.7962225923392E+02
(PID.TID 0000.0001) %MON exf_swflux_sd                =   8.2009023189932E+01
(PID.TID 0000.0001) %MON exf_swflux_del2              =   5.0306982535478E-01
(PID.TID 0000.0001) %MON exf_evap_max                 =   2.0677491809788E-07
(PID.TID 0000.0001) %MON exf_evap_min                 =  -2.2560703290016E-08
(PID.TID 0000.0001) %MON exf_evap_mean                =   3.4388094243936E-08
(PID.TID 0000.0001) %MON exf_evap_sd                  =   2.5579528024655E-08
(PID.TID 0000.0001) %MON exf_evap_del2                =   4.4728168183773E-10
(PID.TID 0000.0001) %MON exf_swdown_max               =   3.6456514831446E+02
(PID.TID 0000.0001) %MON exf_swdown_min               =   0.0000000000000E+00
(PID.TID 0000.0001) %MON exf_swdown_mean              =   1.9231505271298E+02
(PID.TID 0000.0001) %MON exf_swdown_sd                =   8.7804093351105E+01
(PID.TID 0000.0001) %MON exf_swdown_del2              =   1.6379387009284E+00
(PID.TID 0000.0001) %MON exf_lwdown_max               =   4.5254177453033E+02
(PID.TID 0000.0001) %MON exf_lwdown_min               =   1.3941239058078E+02
(PID.TID 0000.0001) %MON exf_lwdown_mean              =   3.5598303815320E+02
(PID.TID 0000.0001) %MON exf_lwdown_sd                =   6.0569774460925E+01
(PID.TID 0000.0001) %MON exf_lwdown_del2              =   2.6608068575027E+00
(PID.TID 0000.0001) // =======================================================
(PID.TID 0000.0001) // End MONITOR EXF statistics
(PID.TID 0000.0001) // =======================================================
 SEAICE_LSR: Residual Initial Uice,Vice=  7.43750003E-02  9.80800477E-02
 SEAICE_LSR: Residual FrDrift U_fd,V_fd=  6.17888036E-02  8.70156708E-02
 SEAICE_LSR (ipass=   1) iters,dU,Resid=     6  8.08181424E-07  1.16211998E-09
 SEAICE_LSR (ipass=   1) iters,dV,Resid=     6  1.17458791E-06  1.53252184E-09
 SEAICE_LSR: Residual Initial Uice,Vice=  3.45995532E-01  1.08344311E+00
 SEAICE_LSR: Residual FrDrift U_fd,V_fd=  4.05511042E-02  1.53851582E-01
 SEAICE_LSR (ipass=   2) iters,dU,Resid=     6  3.80401972E-07  5.40618057E-09
 SEAICE_LSR (ipass=   2) iters,dV,Resid=     6  5.66637759E-07  1.69287991E-08
 cg2d: Sum(rhs),rhsMax =   8.73999658966292E+00  6.92099930533254E+00
 cg2d: Sum(rhs),rhsMax =   1.11007274889654E+01  6.67443211841538E+00
(PID.TID 0000.0001)      cg2d_init_res =   3.67197993640292E+00
(PID.TID 0000.0001)      cg2d_iters(min,last) =      -1      40
(PID.TID 0000.0001)      cg2d_last_res =   4.89062814436429E-05
(PID.TID 0000.0001) // =======================================================
(PID.TID 0000.0001) // Begin MONITOR dynamic field statistics
(PID.TID 0000.0001) // =======================================================
(PID.TID 0000.0001) %MON time_tsnumber                =                     4
(PID.TID 0000.0001) %MON time_secondsf                =   1.7280000000000E+05
(PID.TID 0000.0001) %MON dynstat_eta_max              =   1.0891496283733E+00
(PID.TID 0000.0001) %MON dynstat_eta_min              =  -1.5888055577420E+00
(PID.TID 0000.0001) %MON dynstat_eta_mean             =  -7.0168863224267E-03
(PID.TID 0000.0001) %MON dynstat_eta_sd               =   4.8723521067490E-01
(PID.TID 0000.0001) %MON dynstat_eta_del2             =   1.0860725830501E-03
(PID.TID 0000.0001) %MON dynstat_uvel_max             =   1.7670126698394E-01
(PID.TID 0000.0001) %MON dynstat_uvel_min             =  -1.2098150028736E-01
(PID.TID 0000.0001) %MON dynstat_uvel_mean            =  -3.7460708708162E-04
(PID.TID 0000.0001) %MON dynstat_uvel_sd              =   3.6229784010365E-03
(PID.TID 0000.0001) %MON dynstat_uvel_del2            =   1.3942010082486E-05
(PID.TID 0000.0001) %MON dynstat_vvel_max             =   2.1203617635816E-01
(PID.TID 0000.0001) %MON dynstat_vvel_min             =  -2.3082724366318E-01
(PID.TID 0000.0001) %MON dynstat_vvel_mean            =  -4.1736730379460E-06
(PID.TID 0000.0001) %MON dynstat_vvel_sd              =   3.9800416591529E-03
(PID.TID 0000.0001) %MON dynstat_vvel_del2            =   1.4664184143653E-05
(PID.TID 0000.0001) %MON dynstat_wvel_max             =   6.0999124536954E-04
(PID.TID 0000.0001) %MON dynstat_wvel_min             =  -4.0159422518923E-04
(PID.TID 0000.0001) %MON dynstat_wvel_mean            =  -3.6562775022920E-08
(PID.TID 0000.0001) %MON dynstat_wvel_sd              =   1.4973707775866E-05
(PID.TID 0000.0001) %MON dynstat_wvel_del2            =   5.6547494791618E-08
(PID.TID 0000.0001) %MON dynstat_theta_max            =   3.0104723665406E+01
(PID.TID 0000.0001) %MON dynstat_theta_min            =  -1.9161017544548E+00
(PID.TID 0000.0001) %MON dynstat_theta_mean           =   3.5951540153216E+00
(PID.TID 0000.0001) %MON dynstat_theta_sd             =   4.4463943307474E+00
(PID.TID 0000.0001) %MON dynstat_theta_del2           =   1.5911268789293E-03
(PID.TID 0000.0001) %MON dynstat_salt_max             =   4.0905633133095E+01
(PID.TID 0000.0001) %MON dynstat_salt_min             =   2.8995984192016E+01
(PID.TID 0000.0001) %MON dynstat_salt_mean            =   3.4726381807756E+01
(PID.TID 0000.0001) %MON dynstat_salt_sd              =   4.0030662672644E-01
(PID.TID 0000.0001) %MON dynstat_salt_del2            =   3.3220162636857E-04
(PID.TID 0000.0001) %MON forcing_qnet_max             =   8.6772364107701E+02
(PID.TID 0000.0001) %MON forcing_qnet_min             =  -2.5004961252779E+02
(PID.TID 0000.0001) %MON forcing_qnet_mean            =  -1.1429637253543E+01
(PID.TID 0000.0001) %MON forcing_qnet_sd              =   1.3154401213598E+02
(PID.TID 0000.0001) %MON forcing_qnet_del2            =   9.8003764860968E-01
(PID.TID 0000.0001) %MON forcing_qsw_max              =   0.0000000000000E+00
(PID.TID 0000.0001) %MON forcing_qsw_min              =  -3.3219246727198E+02
(PID.TID 0000.0001) %MON forcing_qsw_mean             =  -1.7931088294927E+02
(PID.TID 0000.0001) %MON forcing_qsw_sd               =   8.0865985875941E+01
(PID.TID 0000.0001) %MON forcing_qsw_del2             =   4.0740214959142E-01
(PID.TID 0000.0001) %MON forcing_empmr_max            =   2.1438760434298E-03
(PID.TID 0000.0001) %MON forcing_empmr_min            =  -5.2985747153383E-04
(PID.TID 0000.0001) %MON forcing_empmr_mean           =   3.4946828712260E-05
(PID.TID 0000.0001) %MON forcing_empmr_sd             =   2.0298398516576E-04
(PID.TID 0000.0001) %MON forcing_empmr_del2           =   1.7895225390214E-06
(PID.TID 0000.0001) %MON forcing_fu_max               =   9.2625675278120E-01
(PID.TID 0000.0001) %MON forcing_fu_min               =  -7.5102938836639E-01
(PID.TID 0000.0001) %MON forcing_fu_mean              =  -2.6807932798340E-03
(PID.TID 0000.0001) %MON forcing_fu_sd                =   1.0579648095170E-01
(PID.TID 0000.0001) %MON forcing_fu_del2              =   1.1102189635763E-03
(PID.TID 0000.0001) %MON forcing_fv_max               =   6.6130605457488E-01
(PID.TID 0000.0001) %MON forcing_fv_min               =  -7.8799255028122E-01
(PID.TID 0000.0001) %MON forcing_fv_mean              =  -1.4409513476072E-02
(PID.TID 0000.0001) %MON forcing_fv_sd                =   1.0552476454646E-01
(PID.TID 0000.0001) %MON forcing_fv_del2              =   9.8536104201943E-04
(PID.TID 0000.0001) %MON advcfl_uvel_max              =   3.9667085870127E-02
(PID.TID 0000.0001) %MON advcfl_vvel_max              =   3.2485068361684E-02
(PID.TID 0000.0001) %MON advcfl_wvel_max              =   3.4532762808467E-01
(PID.TID 0000.0001) %MON advcfl_W_hf_max              =   3.6146078474062E-01
(PID.TID 0000.0001) %MON pe_b_mean                    =   3.0853724312837E-04
(PID.TID 0000.0001) %MON ke_max                       =   2.3615429023782E-02
(PID.TID 0000.0001) %MON ke_mean                      =   1.3401396173272E-05
(PID.TID 0000.0001) %MON ke_vol                       =   1.3542960032882E+18
(PID.TID 0000.0001) %MON vort_r_min                   =  -8.7331935455365E-07
(PID.TID 0000.0001) %MON vort_r_max                   =   6.8882432995009E-07
(PID.TID 0000.0001) %MON vort_a_mean                  =  -1.9720793743754E-05
(PID.TID 0000.0001) %MON vort_a_sd                    =   7.5194613909320E-05
(PID.TID 0000.0001) %MON vort_p_mean                  =  -2.3385755025999E-05
(PID.TID 0000.0001) %MON vort_p_sd                    =   1.1230699891079E-04
(PID.TID 0000.0001) %MON surfExpan_theta_mean         =   3.8708608811221E-06
(PID.TID 0000.0001) %MON surfExpan_salt_mean          =   1.1861060538947E-07
(PID.TID 0000.0001) // =======================================================
(PID.TID 0000.0001) // End MONITOR dynamic field statistics
(PID.TID 0000.0001) // =======================================================
(PID.TID 0000.0001) // =======================================================
(PID.TID 0000.0001) // Begin MONITOR SEAICE statistics
(PID.TID 0000.0001) // =======================================================
(PID.TID 0000.0001) %MON seaice_tsnumber              =                     4
(PID.TID 0000.0001) %MON seaice_time_sec              =   1.7280000000000E+05
(PID.TID 0000.0001) %MON seaice_uice_max              =   3.7166993321615E-01
(PID.TID 0000.0001) %MON seaice_uice_min              =  -3.7878137110473E-01
(PID.TID 0000.0001) %MON seaice_uice_mean             =  -1.0941107790569E-02
(PID.TID 0000.0001) %MON seaice_uice_sd               =   1.2538501775325E-01
(PID.TID 0000.0001) %MON seaice_uice_del2             =   9.8712365454545E-04
(PID.TID 0000.0001) %MON seaice_vice_max              =   3.3315290019432E-01
(PID.TID 0000.0001) %MON seaice_vice_min              =  -3.9866444911209E-01
(PID.TID 0000.0001) %MON seaice_vice_mean             =  -2.8037371396676E-02
(PID.TID 0000.0001) %MON seaice_vice_sd               =   1.3384809682005E-01
(PID.TID 0000.0001) %MON seaice_vice_del2             =   9.6133623251996E-04
(PID.TID 0000.0001) %MON seaice_area_max              =   7.1772153303378E-01
(PID.TID 0000.0001) %MON seaice_area_min              =   0.0000000000000E+00
(PID.TID 0000.0001) %MON seaice_area_mean             =   1.7154515423594E-02
(PID.TID 0000.0001) %MON seaice_area_sd               =   8.9506992099951E-02
(PID.TID 0000.0001) %MON seaice_area_del2             =   5.6025800718530E-04
(PID.TID 0000.0001) %MON seaice_heff_max              =   3.5347434963721E-01
(PID.TID 0000.0001) %MON seaice_heff_min              =   0.0000000000000E+00
(PID.TID 0000.0001) %MON seaice_heff_mean             =   7.9256728816390E-03
(PID.TID 0000.0001) %MON seaice_heff_sd               =   4.2444790212161E-02
(PID.TID 0000.0001) %MON seaice_heff_del2             =   2.6916998640757E-04
(PID.TID 0000.0001) %MON seaice_hsnow_max             =   3.3773519251762E-03
(PID.TID 0000.0001) %MON seaice_hsnow_min             =  -8.2718061255303E-25
(PID.TID 0000.0001) %MON seaice_hsnow_mean            =   2.4283949956301E-05
(PID.TID 0000.0001) %MON seaice_hsnow_sd              =   1.6563128113210E-04
(PID.TID 0000.0001) %MON seaice_hsnow_del2            =   2.0278688510956E-06
(PID.TID 0000.0001) // =======================================================
(PID.TID 0000.0001) // End MONITOR SEAICE statistics
(PID.TID 0000.0001) // =======================================================
(PID.TID 0000.0001) // =======================================================
(PID.TID 0000.0001) // Begin MONITOR EXF statistics
(PID.TID 0000.0001) // =======================================================
(PID.TID 0000.0001) %MON exf_tsnumber                 =                     4
(PID.TID 0000.0001) %MON exf_time_sec                 =   1.7280000000000E+05
(PID.TID 0000.0001) %MON exf_ustress_max              =   7.8423185816887E-01
(PID.TID 0000.0001) %MON exf_ustress_min              =  -1.2703833996761E+00
(PID.TID 0000.0001) %MON exf_ustress_mean             =  -6.6793031115053E-03
(PID.TID 0000.0001) %MON exf_ustress_sd               =   1.1577195295693E-01
(PID.TID 0000.0001) %MON exf_ustress_del2             =   1.5380309463532E-03
(PID.TID 0000.0001) %MON exf_vstress_max              =   1.3075164327770E+00
(PID.TID 0000.0001) %MON exf_vstress_min              =  -7.3753068574876E-01
(PID.TID 0000.0001) %MON exf_vstress_mean             =  -1.5455811453381E-02
(PID.TID 0000.0001) %MON exf_vstress_sd               =   1.0937663771826E-01
(PID.TID 0000.0001) %MON exf_vstress_del2             =   1.3669406102845E-03
(PID.TID 0000.0001) %MON exf_hflux_max                =   1.8235521199419E+03
(PID.TID 0000.0001) %MON exf_hflux_min                =  -2.7389879998797E+02
(PID.TID 0000.0001) %MON exf_hflux_mean               =  -9.2835869309458E+00
(PID.TID 0000.0001) %MON exf_hflux_sd                 =   1.8068814527076E+02
(PID.TID 0000.0001) %MON exf_hflux_del2               =   1.4010929853928E+00
(PID.TID 0000.0001) %MON exf_sflux_max                =   1.8603659881422E-07
(PID.TID 0000.0001) %MON exf_sflux_min                =  -1.9603830663781E-07
(PID.TID 0000.0001) %MON exf_sflux_mean               =  -1.2050189204129E-09
(PID.TID 0000.0001) %MON exf_sflux_sd                 =   4.4267949482282E-08
(PID.TID 0000.0001) %MON exf_sflux_del2               =   4.0216008665685E-10
(PID.TID 0000.0001) %MON exf_uwind_max                =   1.8444453584114E+01
(PID.TID 0000.0001) %MON exf_uwind_min                =  -2.0851095241093E+01
(PID.TID 0000.0001) %MON exf_uwind_mean               =  -5.8703970209708E-01
(PID.TID 0000.0001) %MON exf_uwind_sd                 =   5.6685881379350E+00
(PID.TID 0000.0001) %MON exf_uwind_del2               =   5.1802768714933E-02
(PID.TID 0000.0001) %MON exf_vwind_max                =   2.1486848647197E+01
(PID.TID 0000.0001) %MON exf_vwind_min                =  -1.8088433175412E+01
(PID.TID 0000.0001) %MON exf_vwind_mean               =  -1.1996391446404E+00
(PID.TID 0000.0001) %MON exf_vwind_sd                 =   5.8496290010001E+00
(PID.TID 0000.0001) %MON exf_vwind_del2               =   5.1064781463773E-02
(PID.TID 0000.0001) %MON exf_wspeed_max               =   2.3529765042893E+01
(PID.TID 0000.0001) %MON exf_wspeed_min               =   2.1087931005424E-01
(PID.TID 0000.0001) %MON exf_wspeed_mean              =   7.4565142177744E+00
(PID.TID 0000.0001) %MON exf_wspeed_sd                =   3.5405079206520E+00
(PID.TID 0000.0001) %MON exf_wspeed_del2              =   8.1759105254885E-02
(PID.TID 0000.0001) %MON exf_atemp_max                =   3.0507804730632E+02
(PID.TID 0000.0001) %MON exf_atemp_min                =   2.2701215376627E+02
(PID.TID 0000.0001) %MON exf_atemp_mean               =   2.8920215666686E+02
(PID.TID 0000.0001) %MON exf_atemp_sd                 =   1.2809990571426E+01
(PID.TID 0000.0001) %MON exf_atemp_del2               =   1.5127179148863E-01
(PID.TID 0000.0001) %MON exf_aqh_max                  =   2.2105606353538E-02
(PID.TID 0000.0001) %MON exf_aqh_min                  =  -1.9041408975518E-04
(PID.TID 0000.0001) %MON exf_aqh_mean                 =   1.1072597803777E-02
(PID.TID 0000.0001) %MON exf_aqh_sd                   =   5.6968089378924E-03
(PID.TID 0000.0001) %MON exf_aqh_del2                 =   9.0549285419742E-05
(PID.TID 0000.0001) %MON exf_lwflux_max               =   1.7581682788178E+02
(PID.TID 0000.0001) %MON exf_lwflux_min               =  -8.1723531483117E+00
(PID.TID 0000.0001) %MON exf_lwflux_mean              =   5.5519089001693E+01
(PID.TID 0000.0001) %MON exf_lwflux_sd                =   2.5365068007921E+01
(PID.TID 0000.0001) %MON exf_lwflux_del2              =   4.9474351002447E-01
(PID.TID 0000.0001) %MON exf_precip_max               =   2.4065864543277E-07
(PID.TID 0000.0001) %MON exf_precip_min               =   1.6176230231207E-10
(PID.TID 0000.0001) %MON exf_precip_mean              =   3.6864516364328E-08
(PID.TID 0000.0001) %MON exf_precip_sd                =   3.6344086329063E-08
(PID.TID 0000.0001) %MON exf_precip_del2              =   4.5630551662467E-10
(PID.TID 0000.0001) %MON exf_swflux_max               =  -0.0000000000000E+00
(PID.TID 0000.0001) %MON exf_swflux_min               =  -3.3462731569101E+02
(PID.TID 0000.0001) %MON exf_swflux_mean              =  -1.7905844615095E+02
(PID.TID 0000.0001) %MON exf_swflux_sd                =   8.3234328093620E+01
(PID.TID 0000.0001) %MON exf_swflux_del2              =   5.2295759053710E-01
(PID.TID 0000.0001) %MON exf_evap_max                 =   2.1165995169940E-07
(PID.TID 0000.0001) %MON exf_evap_min                 =  -1.3708227319985E-08
(PID.TID 0000.0001) %MON exf_evap_mean                =   3.5659497443915E-08
(PID.TID 0000.0001) %MON exf_evap_sd                  =   2.6457188873517E-08
(PID.TID 0000.0001) %MON exf_evap_del2                =   4.5673922014359E-10
(PID.TID 0000.0001) %MON exf_swdown_max               =   3.5827335727089E+02
(PID.TID 0000.0001) %MON exf_swdown_min               =   0.0000000000000E+00
(PID.TID 0000.0001) %MON exf_swdown_mean              =   1.9171139844856E+02
(PID.TID 0000.0001) %MON exf_swdown_sd                =   8.9115982969615E+01
(PID.TID 0000.0001) %MON exf_swdown_del2              =   1.6321328922508E+00
(PID.TID 0000.0001) %MON exf_lwdown_max               =   4.5041154763716E+02
(PID.TID 0000.0001) %MON exf_lwdown_min               =   1.3145769304091E+02
(PID.TID 0000.0001) %MON exf_lwdown_mean              =   3.5537128835575E+02
(PID.TID 0000.0001) %MON exf_lwdown_sd                =   6.0353744029977E+01
(PID.TID 0000.0001) %MON exf_lwdown_del2              =   2.6586120117453E+00
(PID.TID 0000.0001) // =======================================================
(PID.TID 0000.0001) // End MONITOR EXF statistics
(PID.TID 0000.0001) // =======================================================
 SEAICE_LSR: Residual Initial Uice,Vice=  1.58042757E-01  1.11785939E-01
 SEAICE_LSR: Residual FrDrift U_fd,V_fd=  1.15981020E-01  9.57999171E-02
 SEAICE_LSR (ipass=   1) iters,dU,Resid=     4  1.40094762E-04  9.88237923E-07
 SEAICE_LSR (ipass=   1) iters,dV,Resid=     4  1.20002115E-04  6.99441944E-07
 SEAICE_LSR: Residual Initial Uice,Vice=  1.31867739E-01  1.43190766E-01
 SEAICE_LSR: Residual FrDrift U_fd,V_fd=  4.48274230E-02  4.03611795E-02
 SEAICE_LSR (ipass=   2) iters,dU,Resid=     4  5.09413840E-05  8.24231209E-07
 SEAICE_LSR (ipass=   2) iters,dV,Resid=     4  4.11365977E-05  8.95096715E-07
 cg2d: Sum(rhs),rhsMax =   1.33292376835928E+01  6.42651121359828E+00
 cg2d: Sum(rhs),rhsMax =   1.52834697069799E+01  6.12698819230550E+00
(PID.TID 0000.0001)      cg2d_init_res =   2.57619787455378E+00
(PID.TID 0000.0001)      cg2d_iters(min,last) =      -1      41
(PID.TID 0000.0001)      cg2d_last_res =   5.52307544084224E-05
(PID.TID 0000.0001) // =======================================================
(PID.TID 0000.0001) // Begin MONITOR dynamic field statistics
(PID.TID 0000.0001) // =======================================================
(PID.TID 0000.0001) %MON time_tsnumber                =                     6
(PID.TID 0000.0001) %MON time_secondsf                =   2.5920000000000E+05
(PID.TID 0000.0001) %MON dynstat_eta_max              =   1.0889528205955E+00
(PID.TID 0000.0001) %MON dynstat_eta_min              =  -1.8353069619105E+00
(PID.TID 0000.0001) %MON dynstat_eta_mean             =  -9.6263060885690E-03
(PID.TID 0000.0001) %MON dynstat_eta_sd               =   5.6359886687880E-01
(PID.TID 0000.0001) %MON dynstat_eta_del2             =   1.0652613602374E-03
(PID.TID 0000.0001) %MON dynstat_uvel_max             =   1.9613450499246E-01
(PID.TID 0000.0001) %MON dynstat_uvel_min             =  -2.0523818043849E-01
(PID.TID 0000.0001) %MON dynstat_uvel_mean            =  -4.7781217094582E-04
(PID.TID 0000.0001) %MON dynstat_uvel_sd              =   5.0232275365715E-03
(PID.TID 0000.0001) %MON dynstat_uvel_del2            =   1.9620567456171E-05
(PID.TID 0000.0001) %MON dynstat_vvel_max             =   3.0568520440313E-01
(PID.TID 0000.0001) %MON dynstat_vvel_min             =  -2.4270341523184E-01
(PID.TID 0000.0001) %MON dynstat_vvel_mean            =  -1.8166333978171E-04
(PID.TID 0000.0001) %MON dynstat_vvel_sd              =   5.4621022811096E-03
(PID.TID 0000.0001) %MON dynstat_vvel_del2            =   2.0562647481380E-05
(PID.TID 0000.0001) %MON dynstat_wvel_max             =   8.8079856354233E-04
(PID.TID 0000.0001) %MON dynstat_wvel_min             =  -5.7633543209866E-04
(PID.TID 0000.0001) %MON dynstat_wvel_mean            =   5.3308622816037E-10
(PID.TID 0000.0001) %MON dynstat_wvel_sd              =   2.0998879634106E-05
(PID.TID 0000.0001) %MON dynstat_wvel_del2            =   7.8240801792254E-08
(PID.TID 0000.0001) %MON dynstat_theta_max            =   3.0125160515442E+01
(PID.TID 0000.0001) %MON dynstat_theta_min            =  -1.9244296961943E+00
(PID.TID 0000.0001) %MON dynstat_theta_mean           =   3.5952361716970E+00
(PID.TID 0000.0001) %MON dynstat_theta_sd             =   4.4464933980101E+00
(PID.TID 0000.0001) %MON dynstat_theta_del2           =   1.5633176554155E-03
(PID.TID 0000.0001) %MON dynstat_salt_max             =   4.0896152305273E+01
(PID.TID 0000.0001) %MON dynstat_salt_min             =   2.8994846660088E+01
(PID.TID 0000.0001) %MON dynstat_salt_mean            =   3.4726405042440E+01
(PID.TID 0000.0001) %MON dynstat_salt_sd              =   4.0014115506954E-01
(PID.TID 0000.0001) %MON dynstat_salt_del2            =   3.2919873998669E-04
(PID.TID 0000.0001) %MON forcing_qnet_max             =   7.6934680751382E+02
(PID.TID 0000.0001) %MON forcing_qnet_min             =  -2.3922600626018E+02
(PID.TID 0000.0001) %MON forcing_qnet_mean            =  -9.5393140936198E+00
(PID.TID 0000.0001) %MON forcing_qnet_sd              =   1.2908895444240E+02
(PID.TID 0000.0001) %MON forcing_qnet_del2            =   1.0565023858523E+00
(PID.TID 0000.0001) %MON forcing_qsw_max              =   0.0000000000000E+00
(PID.TID 0000.0001) %MON forcing_qsw_min              =  -3.3956640882114E+02
(PID.TID 0000.0001) %MON forcing_qsw_mean             =  -1.7938854308390E+02
(PID.TID 0000.0001) %MON forcing_qsw_sd               =   8.1661254042425E+01
(PID.TID 0000.0001) %MON forcing_qsw_del2             =   4.0626138728859E-01
(PID.TID 0000.0001) %MON forcing_empmr_max            =   2.0679821475692E-03
(PID.TID 0000.0001) %MON forcing_empmr_min            =  -3.3287977767998E-04
(PID.TID 0000.0001) %MON forcing_empmr_mean           =   2.9072634250785E-05
(PID.TID 0000.0001) %MON forcing_empmr_sd             =   1.7030432218562E-04
(PID.TID 0000.0001) %MON forcing_empmr_del2           =   1.5461556045043E-06
(PID.TID 0000.0001) %MON forcing_fu_max               =   7.1722603112532E-01
(PID.TID 0000.0001) %MON forcing_fu_min               =  -1.7322887600862E+00
(PID.TID 0000.0001) %MON forcing_fu_mean              =  -9.3254616265920E-03
(PID.TID 0000.0001) %MON forcing_fu_sd                =   1.1780520487287E-01
(PID.TID 0000.0001) %MON forcing_fu_del2              =   1.2363061713886E-03
(PID.TID 0000.0001) %MON forcing_fv_max               =   1.2928106322606E+00
(PID.TID 0000.0001) %MON forcing_fv_min               =  -1.0790051267590E+00
(PID.TID 0000.0001) %MON forcing_fv_mean              =  -1.5639686816730E-02
(PID.TID 0000.0001) %MON forcing_fv_sd                =   1.1205101394699E-01
(PID.TID 0000.0001) %MON forcing_fv_del2              =   1.3283535562969E-03
(PID.TID 0000.0001) %MON advcfl_uvel_max              =   3.9553968953703E-02
(PID.TID 0000.0001) %MON advcfl_vvel_max              =   4.3208862325939E-02
(PID.TID 0000.0001) %MON advcfl_wvel_max              =   4.8472507085360E-01
(PID.TID 0000.0001) %MON advcfl_W_hf_max              =   5.0802520958119E-01
(PID.TID 0000.0001) %MON pe_b_mean                    =   4.0966656529472E-04
(PID.TID 0000.0001) %MON ke_max                       =   2.7464560203222E-02
(PID.TID 0000.0001) %MON ke_mean                      =   2.5473400759104E-05
(PID.TID 0000.0001) %MON ke_vol                       =   1.3542949640156E+18
(PID.TID 0000.0001) %MON vort_r_min                   =  -1.0524622447850E-06
(PID.TID 0000.0001) %MON vort_r_max                   =   9.9305415573506E-07
(PID.TID 0000.0001) %MON vort_a_mean                  =  -1.9720793743754E-05
(PID.TID 0000.0001) %MON vort_a_sd                    =   7.5194618015978E-05
(PID.TID 0000.0001) %MON vort_p_mean                  =  -2.3385766523080E-05
(PID.TID 0000.0001) %MON vort_p_sd                    =   1.1231015242594E-04
(PID.TID 0000.0001) %MON surfExpan_theta_mean         =   2.0996767046353E-06
(PID.TID 0000.0001) %MON surfExpan_salt_mean          =  -2.8290970493636E-09
(PID.TID 0000.0001) // =======================================================
(PID.TID 0000.0001) // End MONITOR dynamic field statistics
(PID.TID 0000.0001) // =======================================================
(PID.TID 0000.0001) // =======================================================
(PID.TID 0000.0001) // Begin MONITOR SEAICE statistics
(PID.TID 0000.0001) // =======================================================
(PID.TID 0000.0001) %MON seaice_tsnumber              =                     6
(PID.TID 0000.0001) %MON seaice_time_sec              =   2.5920000000000E+05
(PID.TID 0000.0001) %MON seaice_uice_max              =   4.0000000000000E-01
(PID.TID 0000.0001) %MON seaice_uice_min              =  -4.0000000000000E-01
(PID.TID 0000.0001) %MON seaice_uice_mean             =  -1.5230619177460E-02
(PID.TID 0000.0001) %MON seaice_uice_sd               =   1.4148102708226E-01
(PID.TID 0000.0001) %MON seaice_uice_del2             =   1.1337590776504E-03
(PID.TID 0000.0001) %MON seaice_vice_max              =   4.0000000000000E-01
(PID.TID 0000.0001) %MON seaice_vice_min              =  -4.0000000000000E-01
(PID.TID 0000.0001) %MON seaice_vice_mean             =  -3.0606477065280E-02
(PID.TID 0000.0001) %MON seaice_vice_sd               =   1.4505841199006E-01
(PID.TID 0000.0001) %MON seaice_vice_del2             =   1.0683056117299E-03
(PID.TID 0000.0001) %MON seaice_area_max              =   9.2597628002330E-01
(PID.TID 0000.0001) %MON seaice_area_min              =   0.0000000000000E+00
(PID.TID 0000.0001) %MON seaice_area_mean             =   2.3154894055445E-02
(PID.TID 0000.0001) %MON seaice_area_sd               =   1.1871091580741E-01
(PID.TID 0000.0001) %MON seaice_area_del2             =   6.8818891539450E-04
(PID.TID 0000.0001) %MON seaice_heff_max              =   4.3959426139163E-01
(PID.TID 0000.0001) %MON seaice_heff_min              =   0.0000000000000E+00
(PID.TID 0000.0001) %MON seaice_heff_mean             =   1.0865035657764E-02
(PID.TID 0000.0001) %MON seaice_heff_sd               =   5.7204407596280E-02
(PID.TID 0000.0001) %MON seaice_heff_del2             =   3.1265194610116E-04
(PID.TID 0000.0001) %MON seaice_hsnow_max             =   7.0221956699498E-03
(PID.TID 0000.0001) %MON seaice_hsnow_min             =   0.0000000000000E+00
(PID.TID 0000.0001) %MON seaice_hsnow_mean            =   5.5413686581967E-05
(PID.TID 0000.0001) %MON seaice_hsnow_sd              =   3.6769442901935E-04
(PID.TID 0000.0001) %MON seaice_hsnow_del2            =   4.3901463612717E-06
(PID.TID 0000.0001) // =======================================================
(PID.TID 0000.0001) // End MONITOR SEAICE statistics
(PID.TID 0000.0001) // =======================================================
(PID.TID 0000.0001) // =======================================================
(PID.TID 0000.0001) // Begin MONITOR EXF statistics
(PID.TID 0000.0001) // =======================================================
(PID.TID 0000.0001) %MON exf_tsnumber                 =                     6
(PID.TID 0000.0001) %MON exf_time_sec                 =   2.5920000000000E+05
(PID.TID 0000.0001) %MON exf_ustress_max              =   1.0511084970332E+00
(PID.TID 0000.0001) %MON exf_ustress_min              =  -2.0345398215611E+00
(PID.TID 0000.0001) %MON exf_ustress_mean             =  -8.2206063467067E-03
(PID.TID 0000.0001) %MON exf_ustress_sd               =   1.1601772935207E-01
(PID.TID 0000.0001) %MON exf_ustress_del2             =   1.5416636755049E-03
(PID.TID 0000.0001) %MON exf_vstress_max              =   1.4669100930984E+00
(PID.TID 0000.0001) %MON exf_vstress_min              =  -1.3936379810158E+00
(PID.TID 0000.0001) %MON exf_vstress_mean             =  -1.3469966026324E-02
(PID.TID 0000.0001) %MON exf_vstress_sd               =   1.1653354802958E-01
(PID.TID 0000.0001) %MON exf_vstress_del2             =   1.6160186713719E-03
(PID.TID 0000.0001) %MON exf_hflux_max                =   1.8345368992259E+03
(PID.TID 0000.0001) %MON exf_hflux_min                =  -2.9217719850719E+02
(PID.TID 0000.0001) %MON exf_hflux_mean               =  -1.1280001439901E+01
(PID.TID 0000.0001) %MON exf_hflux_sd                 =   1.8116733895463E+02
(PID.TID 0000.0001) %MON exf_hflux_del2               =   1.3582617334217E+00
(PID.TID 0000.0001) %MON exf_sflux_max                =   1.6423124729425E-07
(PID.TID 0000.0001) %MON exf_sflux_min                =  -1.9551069622647E-07
(PID.TID 0000.0001) %MON exf_sflux_mean               =  -1.3141833692110E-09
(PID.TID 0000.0001) %MON exf_sflux_sd                 =   4.4081657067857E-08
(PID.TID 0000.0001) %MON exf_sflux_del2               =   4.0890275845030E-10
(PID.TID 0000.0001) %MON exf_uwind_max                =   1.7559576434712E+01
(PID.TID 0000.0001) %MON exf_uwind_min                =  -2.6279395708168E+01
(PID.TID 0000.0001) %MON exf_uwind_mean               =  -6.4274130578617E-01
(PID.TID 0000.0001) %MON exf_uwind_sd                 =   5.6361923816284E+00
(PID.TID 0000.0001) %MON exf_uwind_del2               =   5.3571340012021E-02
(PID.TID 0000.0001) %MON exf_vwind_max                =   2.1248762360932E+01
(PID.TID 0000.0001) %MON exf_vwind_min                =  -2.2754171166650E+01
(PID.TID 0000.0001) %MON exf_vwind_mean               =  -1.1990611151932E+00
(PID.TID 0000.0001) %MON exf_vwind_sd                 =   5.7077388390455E+00
(PID.TID 0000.0001) %MON exf_vwind_del2               =   5.3914635838258E-02
(PID.TID 0000.0001) %MON exf_wspeed_max               =   2.6402533158617E+01
(PID.TID 0000.0001) %MON exf_wspeed_min               =   1.6296104376664E-02
(PID.TID 0000.0001) %MON exf_wspeed_mean              =   7.3361229853461E+00
(PID.TID 0000.0001) %MON exf_wspeed_sd                =   3.5181118096903E+00
(PID.TID 0000.0001) %MON exf_wspeed_del2              =   8.0698958909268E-02
(PID.TID 0000.0001) %MON exf_atemp_max                =   3.0445994753166E+02
(PID.TID 0000.0001) %MON exf_atemp_min                =   2.2610362151136E+02
(PID.TID 0000.0001) %MON exf_atemp_mean               =   2.8924705637261E+02
(PID.TID 0000.0001) %MON exf_atemp_sd                 =   1.2632698171132E+01
(PID.TID 0000.0001) %MON exf_atemp_del2               =   1.5107679000603E-01
(PID.TID 0000.0001) %MON exf_aqh_max                  =   2.1836960246540E-02
(PID.TID 0000.0001) %MON exf_aqh_min                  =  -1.9153280216400E-04
(PID.TID 0000.0001) %MON exf_aqh_mean                 =   1.1053834072317E-02
(PID.TID 0000.0001) %MON exf_aqh_sd                   =   5.6562916272766E-03
(PID.TID 0000.0001) %MON exf_aqh_del2                 =   9.0193086936630E-05
(PID.TID 0000.0001) %MON exf_lwflux_max               =   1.7539765950134E+02
(PID.TID 0000.0001) %MON exf_lwflux_min               =  -1.4503961845964E+01
(PID.TID 0000.0001) %MON exf_lwflux_mean              =   5.4494473839690E+01
(PID.TID 0000.0001) %MON exf_lwflux_sd                =   2.5603768640553E+01
(PID.TID 0000.0001) %MON exf_lwflux_del2              =   4.9917138697330E-01
(PID.TID 0000.0001) %MON exf_precip_max               =   2.4172993284868E-07
(PID.TID 0000.0001) %MON exf_precip_min               =   1.1233536389840E-10
(PID.TID 0000.0001) %MON exf_precip_mean              =   3.6917018697731E-08
(PID.TID 0000.0001) %MON exf_precip_sd                =   3.6882982394487E-08
(PID.TID 0000.0001) %MON exf_precip_del2              =   4.6195888430342E-10
(PID.TID 0000.0001) %MON exf_swflux_max               =  -0.0000000000000E+00
(PID.TID 0000.0001) %MON exf_swflux_min               =  -3.4450550195127E+02
(PID.TID 0000.0001) %MON exf_swflux_mean              =  -1.7982172309478E+02
(PID.TID 0000.0001) %MON exf_swflux_sd                =   8.3230003452107E+01
(PID.TID 0000.0001) %MON exf_swflux_del2              =   4.9589269373045E-01
(PID.TID 0000.0001) %MON exf_evap_max                 =   2.2029264969160E-07
(PID.TID 0000.0001) %MON exf_evap_min                 =  -1.9087871031583E-08
(PID.TID 0000.0001) %MON exf_evap_mean                =   3.5602835328520E-08
(PID.TID 0000.0001) %MON exf_evap_sd                  =   2.6093374208475E-08
(PID.TID 0000.0001) %MON exf_evap_del2                =   4.3696374012821E-10
(PID.TID 0000.0001) %MON exf_swdown_max               =   3.6884957382363E+02
(PID.TID 0000.0001) %MON exf_swdown_min               =   0.0000000000000E+00
(PID.TID 0000.0001) %MON exf_swdown_mean              =   1.9252861145052E+02
(PID.TID 0000.0001) %MON exf_swdown_sd                =   8.9111352732449E+01
(PID.TID 0000.0001) %MON exf_swdown_del2              =   1.6180232563325E+00
(PID.TID 0000.0001) %MON exf_lwdown_max               =   4.4864721604010E+02
(PID.TID 0000.0001) %MON exf_lwdown_min               =   1.3199557714817E+02
(PID.TID 0000.0001) %MON exf_lwdown_mean              =   3.5647588939613E+02
(PID.TID 0000.0001) %MON exf_lwdown_sd                =   6.1275183850206E+01
(PID.TID 0000.0001) %MON exf_lwdown_del2              =   2.6699984061429E+00
(PID.TID 0000.0001) // =======================================================
(PID.TID 0000.0001) // End MONITOR EXF statistics
(PID.TID 0000.0001) // =======================================================
 SEAICE_LSR: Residual Initial Uice,Vice=  1.94431116E-01  1.49034480E-01
 SEAICE_LSR: Residual FrDrift U_fd,V_fd=  1.46949180E-01  1.20311812E-01
 SEAICE_LSR (ipass=   1) iters,dU,Resid=     4  1.16782497E-04  1.34986207E-06
 SEAICE_LSR (ipass=   1) iters,dV,Resid=     4  1.03320798E-04  1.31939786E-06
 SEAICE_LSR: Residual Initial Uice,Vice=  1.08853518E-01  1.19339775E-01
 SEAICE_LSR: Residual FrDrift U_fd,V_fd=  5.96193333E-02  4.36116072E-02
 SEAICE_LSR (ipass=   2) iters,dU,Resid=     4  4.37063564E-05  6.95816071E-07
 SEAICE_LSR (ipass=   2) iters,dV,Resid=     4  3.07434394E-05  7.92831321E-07
 cg2d: Sum(rhs),rhsMax =   1.69401291771628E+01  5.76377387063885E+00
 cg2d: Sum(rhs),rhsMax =   1.83148810724588E+01  5.33864197306257E+00
(PID.TID 0000.0001)      cg2d_init_res =   2.30609155486262E+00
(PID.TID 0000.0001)      cg2d_iters(min,last) =      -1      40
(PID.TID 0000.0001)      cg2d_last_res =   5.90733982493354E-05
(PID.TID 0000.0001) // =======================================================
(PID.TID 0000.0001) // Begin MONITOR dynamic field statistics
(PID.TID 0000.0001) // =======================================================
(PID.TID 0000.0001) %MON time_tsnumber                =                     8
(PID.TID 0000.0001) %MON time_secondsf                =   3.4560000000000E+05
(PID.TID 0000.0001) %MON dynstat_eta_max              =   1.2380979202418E+00
(PID.TID 0000.0001) %MON dynstat_eta_min              =  -1.7951594581406E+00
(PID.TID 0000.0001) %MON dynstat_eta_mean             =  -1.1495361955755E-02
(PID.TID 0000.0001) %MON dynstat_eta_sd               =   5.7034484671284E-01
(PID.TID 0000.0001) %MON dynstat_eta_del2             =   1.0383726238173E-03
(PID.TID 0000.0001) %MON dynstat_uvel_max             =   2.0325416714882E-01
(PID.TID 0000.0001) %MON dynstat_uvel_min             =  -2.6467608280205E-01
(PID.TID 0000.0001) %MON dynstat_uvel_mean            =  -4.1299809319766E-04
(PID.TID 0000.0001) %MON dynstat_uvel_sd              =   6.4226883677198E-03
(PID.TID 0000.0001) %MON dynstat_uvel_del2            =   2.4554782831875E-05
(PID.TID 0000.0001) %MON dynstat_vvel_max             =   3.8852768493999E-01
(PID.TID 0000.0001) %MON dynstat_vvel_min             =  -2.5097976282698E-01
(PID.TID 0000.0001) %MON dynstat_vvel_mean            =  -4.3769039608128E-04
(PID.TID 0000.0001) %MON dynstat_vvel_sd              =   6.9405871689289E-03
(PID.TID 0000.0001) %MON dynstat_vvel_del2            =   2.5663110157521E-05
(PID.TID 0000.0001) %MON dynstat_wvel_max             =   1.1263268027619E-03
(PID.TID 0000.0001) %MON dynstat_wvel_min             =  -7.2966973589603E-04
(PID.TID 0000.0001) %MON dynstat_wvel_mean            =   1.3565669063144E-08
(PID.TID 0000.0001) %MON dynstat_wvel_sd              =   2.6231190507751E-05
(PID.TID 0000.0001) %MON dynstat_wvel_del2            =   9.6077957659990E-08
(PID.TID 0000.0001) %MON dynstat_theta_max            =   3.0179594037415E+01
(PID.TID 0000.0001) %MON dynstat_theta_min            =  -1.9228889009376E+00
(PID.TID 0000.0001) %MON dynstat_theta_mean           =   3.5952947794679E+00
(PID.TID 0000.0001) %MON dynstat_theta_sd             =   4.4465486918252E+00
(PID.TID 0000.0001) %MON dynstat_theta_del2           =   1.5352627740691E-03
(PID.TID 0000.0001) %MON dynstat_salt_max             =   4.0901246438411E+01
(PID.TID 0000.0001) %MON dynstat_salt_min             =   2.8994993116322E+01
(PID.TID 0000.0001) %MON dynstat_salt_mean            =   3.4726421741480E+01
(PID.TID 0000.0001) %MON dynstat_salt_sd              =   4.0001467623685E-01
(PID.TID 0000.0001) %MON dynstat_salt_del2            =   3.2631542517078E-04
(PID.TID 0000.0001) %MON forcing_qnet_max             =   7.3948491395123E+02
(PID.TID 0000.0001) %MON forcing_qnet_min             =  -2.3978944831321E+02
(PID.TID 0000.0001) %MON forcing_qnet_mean            =  -6.5979169099820E+00
(PID.TID 0000.0001) %MON forcing_qnet_sd              =   1.2887324789760E+02
(PID.TID 0000.0001) %MON forcing_qnet_del2            =   1.0345758946461E+00
(PID.TID 0000.0001) %MON forcing_qsw_max              =   0.0000000000000E+00
(PID.TID 0000.0001) %MON forcing_qsw_min              =  -3.2690957687958E+02
(PID.TID 0000.0001) %MON forcing_qsw_mean             =  -1.7948973868659E+02
(PID.TID 0000.0001) %MON forcing_qsw_sd               =   8.1540346512096E+01
(PID.TID 0000.0001) %MON forcing_qsw_del2             =   4.0005236455158E-01
(PID.TID 0000.0001) %MON forcing_empmr_max            =   1.0393937220014E-03
(PID.TID 0000.0001) %MON forcing_empmr_min            =  -2.4450632617207E-04
(PID.TID 0000.0001) %MON forcing_empmr_mean           =   2.0050251054278E-05
(PID.TID 0000.0001) %MON forcing_empmr_sd             =   1.2215221924067E-04
(PID.TID 0000.0001) %MON forcing_empmr_del2           =   1.1662316803161E-06
(PID.TID 0000.0001) %MON forcing_fu_max               =   5.1017884252466E-01
(PID.TID 0000.0001) %MON forcing_fu_min               =  -1.3118860030149E+00
(PID.TID 0000.0001) %MON forcing_fu_mean              =  -8.3606502604874E-03
(PID.TID 0000.0001) %MON forcing_fu_sd                =   1.0837349860478E-01
(PID.TID 0000.0001) %MON forcing_fu_del2              =   1.0972871386227E-03
(PID.TID 0000.0001) %MON forcing_fv_max               =   1.4410335047530E+00
(PID.TID 0000.0001) %MON forcing_fv_min               =  -9.3744008878052E-01
(PID.TID 0000.0001) %MON forcing_fv_mean              =  -1.1280614184977E-02
(PID.TID 0000.0001) %MON forcing_fv_sd                =   1.1917898273901E-01
(PID.TID 0000.0001) %MON forcing_fv_del2              =   1.4613847067147E-03
(PID.TID 0000.0001) %MON advcfl_uvel_max              =   3.7518440588121E-02
(PID.TID 0000.0001) %MON advcfl_vvel_max              =   5.4918717054583E-02
(PID.TID 0000.0001) %MON advcfl_wvel_max              =   5.9992973821973E-01
(PID.TID 0000.0001) %MON advcfl_W_hf_max              =   6.2953700314380E-01
(PID.TID 0000.0001) %MON pe_b_mean                    =   4.1440907087700E-04
(PID.TID 0000.0001) %MON ke_max                       =   3.7979035018681E-02
(PID.TID 0000.0001) %MON ke_mean                      =   4.1336765728468E-05
(PID.TID 0000.0001) %MON ke_vol                       =   1.3542941460571E+18
(PID.TID 0000.0001) %MON vort_r_min                   =  -1.3288937282570E-06
(PID.TID 0000.0001) %MON vort_r_max                   =   1.2621776474302E-06
(PID.TID 0000.0001) %MON vort_a_mean                  =  -1.9720793743754E-05
(PID.TID 0000.0001) %MON vort_a_sd                    =   7.5194640279936E-05
(PID.TID 0000.0001) %MON vort_p_mean                  =  -2.3385785962081E-05
(PID.TID 0000.0001) %MON vort_p_sd                    =   1.1231113636960E-04
(PID.TID 0000.0001) %MON surfExpan_theta_mean         =   8.7332807182725E-07
(PID.TID 0000.0001) %MON surfExpan_salt_mean          =  -9.0951726258251E-08
(PID.TID 0000.0001) // =======================================================
(PID.TID 0000.0001) // End MONITOR dynamic field statistics
(PID.TID 0000.0001) // =======================================================
(PID.TID 0000.0001) // =======================================================
(PID.TID 0000.0001) // Begin MONITOR SEAICE statistics
(PID.TID 0000.0001) // =======================================================
(PID.TID 0000.0001) %MON seaice_tsnumber              =                     8
(PID.TID 0000.0001) %MON seaice_time_sec              =   3.4560000000000E+05
(PID.TID 0000.0001) %MON seaice_uice_max              =   4.0000000000000E-01
(PID.TID 0000.0001) %MON seaice_uice_min              =  -4.0000000000000E-01
(PID.TID 0000.0001) %MON seaice_uice_mean             =  -1.5677090131708E-02
(PID.TID 0000.0001) %MON seaice_uice_sd               =   1.4512765135286E-01
(PID.TID 0000.0001) %MON seaice_uice_del2             =   1.1050905058533E-03
(PID.TID 0000.0001) %MON seaice_vice_max              =   4.0000000000000E-01
(PID.TID 0000.0001) %MON seaice_vice_min              =  -4.0000000000000E-01
(PID.TID 0000.0001) %MON seaice_vice_mean             =  -3.2538381640245E-02
(PID.TID 0000.0001) %MON seaice_vice_sd               =   1.4807698429930E-01
(PID.TID 0000.0001) %MON seaice_vice_del2             =   1.0593857119390E-03
(PID.TID 0000.0001) %MON seaice_area_max              =   9.5000000000000E-01
(PID.TID 0000.0001) %MON seaice_area_min              =   0.0000000000000E+00
(PID.TID 0000.0001) %MON seaice_area_mean             =   2.7342486175986E-02
(PID.TID 0000.0001) %MON seaice_area_sd               =   1.3817491612591E-01
(PID.TID 0000.0001) %MON seaice_area_del2             =   7.6600402850758E-04
(PID.TID 0000.0001) %MON seaice_heff_max              =   5.4331961383658E-01
(PID.TID 0000.0001) %MON seaice_heff_min              =   0.0000000000000E+00
(PID.TID 0000.0001) %MON seaice_heff_mean             =   1.2963203117682E-02
(PID.TID 0000.0001) %MON seaice_heff_sd               =   6.7778840574169E-02
(PID.TID 0000.0001) %MON seaice_heff_del2             =   3.3444277385302E-04
(PID.TID 0000.0001) %MON seaice_hsnow_max             =   1.1633981326268E-02
(PID.TID 0000.0001) %MON seaice_hsnow_min             =   0.0000000000000E+00
(PID.TID 0000.0001) %MON seaice_hsnow_mean            =   9.7613986005462E-05
(PID.TID 0000.0001) %MON seaice_hsnow_sd              =   6.3368334412174E-04
(PID.TID 0000.0001) %MON seaice_hsnow_del2            =   7.6682259675778E-06
(PID.TID 0000.0001) // =======================================================
(PID.TID 0000.0001) // End MONITOR SEAICE statistics
(PID.TID 0000.0001) // =======================================================
(PID.TID 0000.0001) %CHECKPOINT         8 ckptA
(PID.TID 0000.0001) ph-cost call cost_theta0
(PID.TID 0000.0001) ph-cost call cost_salt0
(PID.TID 0000.0001) ph-cost call cost_theta
(PID.TID 0000.0001) ph-cost call cost_salt
(PID.TID 0000.0001) ph-cost gencost # 01
(PID.TID 0000.0001) ph-cost gencost # 02
(PID.TID 0000.0001) ph-cost gencost # 03
(PID.TID 0000.0001) ph-cost gencost # 04
(PID.TID 0000.0001) ph-cost gencost # 05
(PID.TID 0000.0001) ph-cost gencost # 06
(PID.TID 0000.0001) ph-cost gencost # 07
(PID.TID 0000.0001) ph-cost gencost # 08
(PID.TID 0000.0001) ph-cost gencost # 09
(PID.TID 0000.0001) ph-cost gencost # 10
(PID.TID 0000.0001) ph-cost gencost # 11
(PID.TID 0000.0001) ph-cost gencost # 12
(PID.TID 0000.0001) ph-cost gencost # 13
(PID.TID 0000.0001) ph-cost gencost # 14
(PID.TID 0000.0001) ph-cost gencost # 15
(PID.TID 0000.0001) ph-cost gencost # 16
(PID.TID 0000.0001) ph-cost gencost # 17
(PID.TID 0000.0001) ph-cost gencost # 18
(PID.TID 0000.0001) ph-cost gencost # 19
(PID.TID 0000.0001) ph-cost gencost # 20
 --> f_ice     = 0.000000000000000D+00
 --> f_smrarea = 0.000000000000000D+00
 --> f_smrarea = 0.000000000000000D+00
 --> f_smrarea = 0.000000000000000D+00
 --> f_temp    = 0.433747490673288D+05
 --> f_salt    = 0.282277351209660D+05
 --> f_temp0   = 0.000000000000000D+00
 --> f_salt0   = 0.000000000000000D+00
 --> f_temp0smoo = 0.000000000000000D+00
 --> f_salt0smoo = 0.000000000000000D+00
 --> f_etan0   = 0.000000000000000D+00
 --> f_uvel0   = 0.000000000000000D+00
 --> f_vvel0   = 0.000000000000000D+00
 --> f_sst     = 0.000000000000000D+00
 --> f_tmi     = 0.000000000000000D+00
 --> f_sss     = 0.000000000000000D+00
 --> f_bp      = 0.000000000000000D+00
 --> f_ies      = 0.000000000000000D+00
 --> f_ssh       = 0.000000000000000D+00
 --> f_tp        = 0.000000000000000D+00
 --> f_ers       = 0.000000000000000D+00
 --> f_gfo       = 0.000000000000000D+00
 --> f_tauu    = 0.000000000000000D+00
 --> f_tauum   = 0.000000000000000D+00
 --> f_tauusmoo = 0.000000000000000D+00
 --> f_tauv    = 0.000000000000000D+00
 --> f_tauvm   = 0.000000000000000D+00
 --> f_tauvsmoo = 0.000000000000000D+00
 --> f_hflux   = 0.000000000000000D+00
 --> f_hfluxmm = 0.000000000000000D+00
 --> f_hfluxsmoo = 0.000000000000000D+00
 --> f_sflux   = 0.000000000000000D+00
 --> f_sfluxmm = 0.000000000000000D+00
 --> f_sfluxsmoo = 0.000000000000000D+00
 --> f_uwind     = 0.000000000000000D+00
 --> f_vwind     = 0.000000000000000D+00
 --> f_atemp     = 0.000000000000000D+00
 --> f_aqh     = 0.000000000000000D+00
 --> f_precip  = 0.000000000000000D+00
 --> f_swflux  = 0.000000000000000D+00
 --> f_swdown  = 0.000000000000000D+00
 --> f_uwindm     = 0.000000000000000D+00
 --> f_vwindm     = 0.000000000000000D+00
 --> f_atempm     = 0.000000000000000D+00
 --> f_aqhm     = 0.000000000000000D+00
 --> f_precipm  = 0.000000000000000D+00
 --> f_swfluxm  = 0.000000000000000D+00
 --> f_swdownm  = 0.000000000000000D+00
 --> f_uwindsmoo     = 0.000000000000000D+00
 --> f_vwindsmoo     = 0.000000000000000D+00
 --> f_atempsmoo     = 0.000000000000000D+00
 --> f_aqhsmoo     = 0.000000000000000D+00
 --> f_precipsmoo  = 0.000000000000000D+00
 --> f_swfluxsmoo  = 0.000000000000000D+00
 --> f_swdownsmoo  = 0.000000000000000D+00
 --> f_atl     = 0.000000000000000D+00
 --> f_ctdt    = 0.000000000000000D+00
 --> f_ctds    = 0.000000000000000D+00
 --> f_ctdtclim= 0.000000000000000D+00
 --> f_ctdsclim= 0.000000000000000D+00
 --> f_xbt     = 0.000000000000000D+00
 --> f_argot   = 0.000000000000000D+00
 --> f_argos   = 0.000000000000000D+00
 --> f_drifter   = 0.000000000000000D+00
 --> f_tdrift  = 0.000000000000000D+00
 --> f_sdrift  = 0.000000000000000D+00
 --> f_wdrift  = 0.000000000000000D+00
 --> f_scatx   = 0.000000000000000D+00
 --> f_scaty   = 0.000000000000000D+00
 --> f_scatxm  = 0.000000000000000D+00
 --> f_scatym  = 0.000000000000000D+00
 --> f_obcsn   = 0.000000000000000D+00
 --> f_obcss   = 0.000000000000000D+00
 --> f_obcsw   = 0.000000000000000D+00
 --> f_obcse   = 0.000000000000000D+00
 --> f_ageos   = 0.000000000000000D+00
 --> f_curmtr  = 0.000000000000000D+00
 --> f_kapgm   = 0.000000000000000D+00
 --> f_kapredi   = 0.000000000000000D+00
 --> f_diffkr  = 0.000000000000000D+00
 --> f_eddytau = 0.000000000000000D+00
 --> f_bottomdrag = 0.000000000000000D+00
 --> f_hfluxmm2           = 0.000000000000000D+00
 --> f_sfluxmm2           = 0.000000000000000D+00
 --> f_transp             = 0.000000000000000D+00
 --> objf_hmean           = 0.000000000000000D+00
 --> fc               = 0.716024841882947D+05
 --> objf_test(bi,bj)   =  0.000000000000000D+00
 --> objf_tracer(bi,bj) =  0.000000000000000D+00
 --> objf_atl(bi,bj)    =  0.000000000000000D+00
 --> objf_test(bi,bj)   =  0.000000000000000D+00
 --> objf_tracer(bi,bj) =  0.000000000000000D+00
 --> objf_atl(bi,bj)    =  0.000000000000000D+00
 --> objf_test(bi,bj)   =  0.000000000000000D+00
 --> objf_tracer(bi,bj) =  0.000000000000000D+00
 --> objf_atl(bi,bj)    =  0.000000000000000D+00
 --> objf_test(bi,bj)   =  0.000000000000000D+00
 --> objf_tracer(bi,bj) =  0.000000000000000D+00
 --> objf_atl(bi,bj)    =  0.000000000000000D+00
 --> objf_test(bi,bj)   =  0.000000000000000D+00
 --> objf_tracer(bi,bj) =  0.000000000000000D+00
 --> objf_atl(bi,bj)    =  0.000000000000000D+00
 --> objf_test(bi,bj)   =  0.000000000000000D+00
 --> objf_tracer(bi,bj) =  0.000000000000000D+00
 --> objf_atl(bi,bj)    =  0.000000000000000D+00
 --> objf_test(bi,bj)   =  0.000000000000000D+00
 --> objf_tracer(bi,bj) =  0.000000000000000D+00
 --> objf_atl(bi,bj)    =  0.000000000000000D+00
 --> objf_test(bi,bj)   =  0.000000000000000D+00
 --> objf_tracer(bi,bj) =  0.000000000000000D+00
 --> objf_atl(bi,bj)    =  0.000000000000000D+00
 --> objf_test(bi,bj)   =  0.000000000000000D+00
 --> objf_tracer(bi,bj) =  0.000000000000000D+00
 --> objf_atl(bi,bj)    =  0.000000000000000D+00
 --> objf_test(bi,bj)   =  0.000000000000000D+00
 --> objf_tracer(bi,bj) =  0.000000000000000D+00
 --> objf_atl(bi,bj)    =  0.000000000000000D+00
 --> objf_test(bi,bj)   =  0.000000000000000D+00
 --> objf_tracer(bi,bj) =  0.000000000000000D+00
 --> objf_atl(bi,bj)    =  0.000000000000000D+00
 --> objf_test(bi,bj)   =  0.000000000000000D+00
 --> objf_tracer(bi,bj) =  0.000000000000000D+00
 --> objf_atl(bi,bj)    =  0.000000000000000D+00
 --> objf_test(bi,bj)   =  0.000000000000000D+00
 --> objf_tracer(bi,bj) =  0.000000000000000D+00
 --> objf_atl(bi,bj)    =  0.000000000000000D+00
 --> objf_test(bi,bj)   =  0.000000000000000D+00
 --> objf_tracer(bi,bj) =  0.000000000000000D+00
 --> objf_atl(bi,bj)    =  0.000000000000000D+00
 --> objf_test(bi,bj)   =  0.000000000000000D+00
 --> objf_tracer(bi,bj) =  0.000000000000000D+00
 --> objf_atl(bi,bj)    =  0.000000000000000D+00
 --> objf_test(bi,bj)   =  0.000000000000000D+00
 --> objf_tracer(bi,bj) =  0.000000000000000D+00
 --> objf_atl(bi,bj)    =  0.000000000000000D+00
 --> objf_test(bi,bj)   =  0.000000000000000D+00
 --> objf_tracer(bi,bj) =  0.000000000000000D+00
 --> objf_atl(bi,bj)    =  0.000000000000000D+00
 --> objf_test(bi,bj)   =  0.000000000000000D+00
 --> objf_tracer(bi,bj) =  0.000000000000000D+00
 --> objf_atl(bi,bj)    =  0.000000000000000D+00
 --> objf_test(bi,bj)   =  0.000000000000000D+00
 --> objf_tracer(bi,bj) =  0.000000000000000D+00
 --> objf_atl(bi,bj)    =  0.000000000000000D+00
 --> objf_test(bi,bj)   =  0.000000000000000D+00
 --> objf_tracer(bi,bj) =  0.000000000000000D+00
 --> objf_atl(bi,bj)    =  0.000000000000000D+00
 --> objf_test(bi,bj)   =  0.000000000000000D+00
 --> objf_tracer(bi,bj) =  0.000000000000000D+00
 --> objf_atl(bi,bj)    =  0.000000000000000D+00
 --> objf_test(bi,bj)   =  0.000000000000000D+00
 --> objf_tracer(bi,bj) =  0.000000000000000D+00
 --> objf_atl(bi,bj)    =  0.000000000000000D+00
 --> objf_test(bi,bj)   =  0.000000000000000D+00
 --> objf_tracer(bi,bj) =  0.000000000000000D+00
 --> objf_atl(bi,bj)    =  0.000000000000000D+00
 --> objf_test(bi,bj)   =  0.000000000000000D+00
 --> objf_tracer(bi,bj) =  0.000000000000000D+00
 --> objf_atl(bi,bj)    =  0.000000000000000D+00
  local fc =  0.716024841882947D+05
 global fc =  0.716024841882947D+05
(PID.TID 0000.0001) whio : write lev 2 rec   1
(PID.TID 0000.0001) SOLVE_FOR_PRESSURE: putPmEinXvector =    F
 cg2d: Sum(rhs),rhsMax =   3.28986887568329E+00  6.80605256987103E+00
 cg2d: Sum(rhs),rhsMax =   6.18100862039316E+00  7.25298038338583E+00
 cg2d: Sum(rhs),rhsMax =   8.73999658966237E+00  6.92099930533232E+00
 cg2d: Sum(rhs),rhsMax =   1.11007274889631E+01  6.67443211841507E+00
(PID.TID 0000.0001) whio : write lev 2 rec   2
 cg2d: Sum(rhs),rhsMax =   1.33292378431533E+01  6.42651121354871E+00
 cg2d: Sum(rhs),rhsMax =   1.52834698718214E+01  6.12698819227123E+00
 cg2d: Sum(rhs),rhsMax =   1.69401292980465E+01  5.76377387068742E+00
 cg2d: Sum(rhs),rhsMax =   1.83148811563668E+01  5.33864197323952E+00
(PID.TID 0000.0001) Did not write pickup because writePickupAtEnd = FALSE
(PID.TID 0000.0001) whio : write lev 2 rec   3
 cg2d: Sum(rhs),rhsMax =   1.33292377281419E+01  6.42651252506031E+00
 cg2d: Sum(rhs),rhsMax =   1.52839866186502E+01  6.12699011593972E+00
 cg2d: Sum(rhs),rhsMax =   1.69406184378339E+01  5.76377601362277E+00
 cg2d: Sum(rhs),rhsMax =   1.83150820363243E+01  5.33864393381297E+00
(PID.TID 0000.0001) Did not write pickup because writePickupAtEnd = FALSE
 cg2d: Sum(rhs),rhsMax =   1.83150817828535E+01  5.33864330417781E+00
(PID.TID 0000.0001) Did not write pickup because writePickupAtEnd = FALSE
 cg2d: Sum(rhs),rhsMax =   0.00000000000000E+00  1.30653564743706E-04
 cg2d: Sum(rhs),rhsMax =   1.69406195833580E+01  5.76377607723339E+00
 cg2d: Sum(rhs),rhsMax =  -2.45639554703747E-20  1.35352096088783E-04
 cg2d: Sum(rhs),rhsMax =   1.52839864510192E+01  6.12699006048337E+00
 cg2d: Sum(rhs),rhsMax =  -1.49077798716757E-19  1.18610450143726E-04
 cg2d: Sum(rhs),rhsMax =   1.33292377347358E+01  6.42651264540880E+00
 cg2d: Sum(rhs),rhsMax =  -1.79570984817912E-19  1.44730100592843E-04
(PID.TID 0000.0001) SOLVE_FOR_PRESSURE: putPmEinXvector =    F
 cg2d: Sum(rhs),rhsMax =   3.28986887568330E+00  6.80605256987103E+00
 cg2d: Sum(rhs),rhsMax =   6.18100862039320E+00  7.25298038338583E+00
 cg2d: Sum(rhs),rhsMax =   8.73999658966245E+00  6.92099930533232E+00
 cg2d: Sum(rhs),rhsMax =   1.11007273865375E+01  6.67443211845003E+00
 cg2d: Sum(rhs),rhsMax =   1.11007275004131E+01  6.67443184985826E+00
 cg2d: Sum(rhs),rhsMax =   2.59192081859816E-19  2.27280829235906E-04
 cg2d: Sum(rhs),rhsMax =   8.73999647495090E+00  6.92099919191941E+00
 cg2d: Sum(rhs),rhsMax =  -9.82558218814988E-20  3.02643278286483E-04
 cg2d: Sum(rhs),rhsMax =   6.18100883808665E+00  7.25298062663648E+00
 cg2d: Sum(rhs),rhsMax =  -4.20128341838133E-19  2.73441257654795E-04
(PID.TID 0000.0001) SOLVE_FOR_PRESSURE: putPmEinXvector =    F
 cg2d: Sum(rhs),rhsMax =   3.28986889086494E+00  6.80605252120546E+00
 cg2d: Sum(rhs),rhsMax =   1.55854062294791E-19  3.72415894302711E-04
(PID.TID 0000.0001) // =======================================================
(PID.TID 0000.0001) // Begin AD_MONITOR EXF statistics for iwhen =  3
(PID.TID 0000.0001) // =======================================================
(PID.TID 0000.0001) %MON ad_exf_tsnumber              =                     0
(PID.TID 0000.0001) %MON ad_exf_time_sec              =   0.0000000000000E+00
(PID.TID 0000.0001) %MON ad_exf_adfu_max              =   2.1512159733399E+00
(PID.TID 0000.0001) %MON ad_exf_adfu_min              =  -1.0027189193236E+01
(PID.TID 0000.0001) %MON ad_exf_adfu_mean             =   5.1025921776275E-03
(PID.TID 0000.0001) %MON ad_exf_adfu_sd               =   1.6202617408406E-01
(PID.TID 0000.0001) %MON ad_exf_adfu_del2             =   2.7717251606422E-03
(PID.TID 0000.0001) %MON ad_exf_adfv_max              =   1.3688397849521E+00
(PID.TID 0000.0001) %MON ad_exf_adfv_min              =  -3.9592106789549E+00
(PID.TID 0000.0001) %MON ad_exf_adfv_mean             =  -4.0899292073902E-03
(PID.TID 0000.0001) %MON ad_exf_adfv_sd               =   1.0380415678181E-01
(PID.TID 0000.0001) %MON ad_exf_adfv_del2             =   3.8528388298535E-03
(PID.TID 0000.0001) %MON ad_exf_adqnet_max            =   2.8847129276424E-03
(PID.TID 0000.0001) %MON ad_exf_adqnet_min            =  -4.1661801992527E-03
(PID.TID 0000.0001) %MON ad_exf_adqnet_mean           =  -2.6467289468795E-04
(PID.TID 0000.0001) %MON ad_exf_adqnet_sd             =   6.6180071484004E-04
(PID.TID 0000.0001) %MON ad_exf_adqnet_del2           =   7.2992971198199E-06
(PID.TID 0000.0001) %MON ad_exf_adempmr_max           =   2.1841809244613E+04
(PID.TID 0000.0001) %MON ad_exf_adempmr_min           =  -1.8564943794220E+03
(PID.TID 0000.0001) %MON ad_exf_adempmr_mean          =   2.3994723218136E+01
(PID.TID 0000.0001) %MON ad_exf_adempmr_sd            =   3.6739606596375E+02
(PID.TID 0000.0001) %MON ad_exf_adempmr_del2          =   4.1440109184707E+00
(PID.TID 0000.0001) // =======================================================
(PID.TID 0000.0001) // End AD_MONITOR EXF statistics for iwhen =  3
(PID.TID 0000.0001) // =======================================================
(PID.TID 0000.0001) // =======================================================
(PID.TID 0000.0001) // Begin AD_MONITOR EXF statistics for iwhen =  1
(PID.TID 0000.0001) // =======================================================
(PID.TID 0000.0001) %MON ad_exf_tsnumber              =                     0
(PID.TID 0000.0001) %MON ad_exf_time_sec              =   0.0000000000000E+00
(PID.TID 0000.0001) %MON ad_exf_adustress_max         =   1.0756079866699E+00
(PID.TID 0000.0001) %MON ad_exf_adustress_min         =  -4.9218744786568E+00
(PID.TID 0000.0001) %MON ad_exf_adustress_mean        =   5.3192984996302E-03
(PID.TID 0000.0001) %MON ad_exf_adustress_sd          =   9.0703918556222E-02
(PID.TID 0000.0001) %MON ad_exf_adustress_del2        =   1.4818670517671E-03
(PID.TID 0000.0001) %MON ad_exf_advstress_max         =   9.2942401032902E-01
(PID.TID 0000.0001) %MON ad_exf_advstress_min         =  -1.9796053394775E+00
(PID.TID 0000.0001) %MON ad_exf_advstress_mean        =  -3.8646469568019E-03
(PID.TID 0000.0001) %MON ad_exf_advstress_sd          =   7.1340492168333E-02
(PID.TID 0000.0001) %MON ad_exf_advstress_del2        =   1.7190119748356E-03
(PID.TID 0000.0001) %MON ad_exf_adhflux_max           =   4.5742482741764E-03
(PID.TID 0000.0001) %MON ad_exf_adhflux_min           =  -3.8721126848833E-03
(PID.TID 0000.0001) %MON ad_exf_adhflux_mean          =  -9.1585464081369E-06
(PID.TID 0000.0001) %MON ad_exf_adhflux_sd            =   6.5945239372993E-04
(PID.TID 0000.0001) %MON ad_exf_adhflux_del2          =   7.1702888708419E-06
(PID.TID 0000.0001) %MON ad_exf_adsflux_max           =   0.0000000000000E+00
(PID.TID 0000.0001) %MON ad_exf_adsflux_min           =   0.0000000000000E+00
(PID.TID 0000.0001) %MON ad_exf_adsflux_mean          =   0.0000000000000E+00
(PID.TID 0000.0001) %MON ad_exf_adsflux_sd            =   0.0000000000000E+00
(PID.TID 0000.0001) %MON ad_exf_adsflux_del2          =   0.0000000000000E+00
(PID.TID 0000.0001) %MON ad_exf_adwspeed_max          =   0.0000000000000E+00
(PID.TID 0000.0001) %MON ad_exf_adwspeed_min          =   0.0000000000000E+00
(PID.TID 0000.0001) %MON ad_exf_adwspeed_mean         =   0.0000000000000E+00
(PID.TID 0000.0001) %MON ad_exf_adwspeed_sd           =   0.0000000000000E+00
(PID.TID 0000.0001) %MON ad_exf_adwspeed_del2         =   0.0000000000000E+00
(PID.TID 0000.0001) // =======================================================
(PID.TID 0000.0001) // End AD_MONITOR EXF statistics for iwhen =  1
(PID.TID 0000.0001) // =======================================================
(PID.TID 0000.0001) // =======================================================
(PID.TID 0000.0001) // Begin AD_MONITOR EXF statistics for iwhen =  2
(PID.TID 0000.0001) // =======================================================
(PID.TID 0000.0001) %MON ad_exf_tsnumber              =                     0
(PID.TID 0000.0001) %MON ad_exf_time_sec              =   0.0000000000000E+00
(PID.TID 0000.0001) %MON ad_exf_aduwind_max           =   6.7441154556751E-02
(PID.TID 0000.0001) %MON ad_exf_aduwind_min           =  -2.8172565682229E-01
(PID.TID 0000.0001) %MON ad_exf_aduwind_mean          =  -1.5635366752621E-04
(PID.TID 0000.0001) %MON ad_exf_aduwind_sd            =   8.9664027918971E-03
(PID.TID 0000.0001) %MON ad_exf_aduwind_del2          =   1.5432048134018E-04
(PID.TID 0000.0001) %MON ad_exf_advwind_max           =   3.2264793892097E-01
(PID.TID 0000.0001) %MON ad_exf_advwind_min           =  -5.5603678630015E-02
(PID.TID 0000.0001) %MON ad_exf_advwind_mean          =  -3.8440026619016E-04
(PID.TID 0000.0001) %MON ad_exf_advwind_sd            =   9.3341170369796E-03
(PID.TID 0000.0001) %MON ad_exf_advwind_del2          =   1.6449054885682E-04
(PID.TID 0000.0001) %MON ad_exf_adatemp_max           =   3.7651113875378E-02
(PID.TID 0000.0001) %MON ad_exf_adatemp_min           =  -3.3645336862240E-02
(PID.TID 0000.0001) %MON ad_exf_adatemp_mean          =  -1.5313721617753E-03
(PID.TID 0000.0001) %MON ad_exf_adatemp_sd            =   7.6512499734715E-03
(PID.TID 0000.0001) %MON ad_exf_adatemp_del2          =   1.0813162637328E-04
(PID.TID 0000.0001) %MON ad_exf_adaqh_max             =   1.0811214692523E+02
(PID.TID 0000.0001) %MON ad_exf_adaqh_min             =  -2.1490218367480E+02
(PID.TID 0000.0001) %MON ad_exf_adaqh_mean            =  -1.7869619601619E+00
(PID.TID 0000.0001) %MON ad_exf_adaqh_sd              =   1.9937582235032E+01
(PID.TID 0000.0001) %MON ad_exf_adaqh_del2            =   2.6213226838951E-01
(PID.TID 0000.0001) %MON ad_exf_adlwflux_max          =   0.0000000000000E+00
(PID.TID 0000.0001) %MON ad_exf_adlwflux_min          =   0.0000000000000E+00
(PID.TID 0000.0001) %MON ad_exf_adlwflux_mean         =   0.0000000000000E+00
(PID.TID 0000.0001) %MON ad_exf_adlwflux_sd           =   0.0000000000000E+00
(PID.TID 0000.0001) %MON ad_exf_adlwflux_del2         =   0.0000000000000E+00
(PID.TID 0000.0001) %MON ad_exf_adprecip_max          =   1.8754101336441E+06
(PID.TID 0000.0001) %MON ad_exf_adprecip_min          =  -2.1810641321244E+07
(PID.TID 0000.0001) %MON ad_exf_adprecip_mean         =   2.7365371523560E+03
(PID.TID 0000.0001) %MON ad_exf_adprecip_sd           =   3.6697704568505E+05
(PID.TID 0000.0001) %MON ad_exf_adprecip_del2         =   4.1449431445287E+03
(PID.TID 0000.0001) %MON ad_exf_adswflux_max          =   0.0000000000000E+00
(PID.TID 0000.0001) %MON ad_exf_adswflux_min          =   0.0000000000000E+00
(PID.TID 0000.0001) %MON ad_exf_adswflux_mean         =   0.0000000000000E+00
(PID.TID 0000.0001) %MON ad_exf_adswflux_sd           =   0.0000000000000E+00
(PID.TID 0000.0001) %MON ad_exf_adswflux_del2         =   0.0000000000000E+00
(PID.TID 0000.0001) %MON ad_exf_adswdown_max          =   3.2727652431188E-03
(PID.TID 0000.0001) %MON ad_exf_adswdown_min          =  -3.5108670781705E-03
(PID.TID 0000.0001) %MON ad_exf_adswdown_mean         =  -8.4478726321157E-06
(PID.TID 0000.0001) %MON ad_exf_adswdown_sd           =   5.5876447810853E-04
(PID.TID 0000.0001) %MON ad_exf_adswdown_del2         =   5.9373081975951E-06
(PID.TID 0000.0001) %MON ad_exf_adlwdown_max          =   3.8721126848833E-03
(PID.TID 0000.0001) %MON ad_exf_adlwdown_min          =  -4.5742482741764E-03
(PID.TID 0000.0001) %MON ad_exf_adlwdown_mean         =   9.1585464081369E-06
(PID.TID 0000.0001) %MON ad_exf_adlwdown_sd           =   6.5945239372993E-04
(PID.TID 0000.0001) %MON ad_exf_adlwdown_del2         =   7.1702888708419E-06
(PID.TID 0000.0001) // =======================================================
(PID.TID 0000.0001) // End AD_MONITOR EXF statistics for iwhen =  2
(PID.TID 0000.0001) // =======================================================
(PID.TID 0000.0001) Start initial hydrostatic pressure computation
(PID.TID 0000.0001) Pressure is predetermined for buoyancyRelation OCEANIC
(PID.TID 0000.0001) 
(PID.TID 0000.0001) // =======================================================
(PID.TID 0000.0001) // Begin MONITOR dynamic field statistics
(PID.TID 0000.0001) // =======================================================
(PID.TID 0000.0001) %MON ad_time_tsnumber             =                     0
(PID.TID 0000.0001) %MON ad_time_secondsf             =   0.0000000000000E+00
(PID.TID 0000.0001) %MON ad_dynstat_adeta_max         =   0.0000000000000E+00
(PID.TID 0000.0001) %MON ad_dynstat_adeta_min         =   0.0000000000000E+00
(PID.TID 0000.0001) %MON ad_dynstat_adeta_mean        =   0.0000000000000E+00
(PID.TID 0000.0001) %MON ad_dynstat_adeta_sd          =   0.0000000000000E+00
(PID.TID 0000.0001) %MON ad_dynstat_adeta_del2        =   0.0000000000000E+00
(PID.TID 0000.0001) %MON ad_dynstat_aduvel_max        =   3.0353801404369E+02
(PID.TID 0000.0001) %MON ad_dynstat_aduvel_min        =  -3.0479446237662E+02
(PID.TID 0000.0001) %MON ad_dynstat_aduvel_mean       =  -2.3603629438839E-02
(PID.TID 0000.0001) %MON ad_dynstat_aduvel_sd         =   3.2703374497251E+00
(PID.TID 0000.0001) %MON ad_dynstat_aduvel_del2       =   9.3831107950158E-03
(PID.TID 0000.0001) %MON ad_dynstat_advvel_max        =   1.8783970376393E+03
(PID.TID 0000.0001) %MON ad_dynstat_advvel_min        =  -3.5085398237746E+02
(PID.TID 0000.0001) %MON ad_dynstat_advvel_mean       =   5.2889767740872E-02
(PID.TID 0000.0001) %MON ad_dynstat_advvel_sd         =   1.3074160764471E+01
(PID.TID 0000.0001) %MON ad_dynstat_advvel_del2       =   1.0305642417321E-02
(PID.TID 0000.0001) %MON ad_dynstat_adwvel_max        =   0.0000000000000E+00
(PID.TID 0000.0001) %MON ad_dynstat_adwvel_min        =   0.0000000000000E+00
(PID.TID 0000.0001) %MON ad_dynstat_adwvel_mean       =   0.0000000000000E+00
(PID.TID 0000.0001) %MON ad_dynstat_adwvel_sd         =   0.0000000000000E+00
(PID.TID 0000.0001) %MON ad_dynstat_adwvel_del2       =   0.0000000000000E+00
(PID.TID 0000.0001) %MON ad_dynstat_adtheta_max       =   1.8676263906810E+03
(PID.TID 0000.0001) %MON ad_dynstat_adtheta_min       =  -9.7548010661272E+02
(PID.TID 0000.0001) %MON ad_dynstat_adtheta_mean      =  -2.1117128353105E-01
(PID.TID 0000.0001) %MON ad_dynstat_adtheta_sd        =   1.6627494810901E+01
(PID.TID 0000.0001) %MON ad_dynstat_adtheta_del2      =   2.5366641643765E-02
(PID.TID 0000.0001) %MON ad_dynstat_adsalt_max        =   3.0683701900320E+03
(PID.TID 0000.0001) %MON ad_dynstat_adsalt_min        =  -4.2598507256599E+02
(PID.TID 0000.0001) %MON ad_dynstat_adsalt_mean       =   4.6777602852578E-01
(PID.TID 0000.0001) %MON ad_dynstat_adsalt_sd         =   1.9787176913355E+01
(PID.TID 0000.0001) %MON ad_dynstat_adsalt_del2       =   2.9507798818957E-02
(PID.TID 0000.0001) %MON ad_forcing_adqnet_max        =   0.0000000000000E+00
(PID.TID 0000.0001) %MON ad_forcing_adqnet_min        =   0.0000000000000E+00
(PID.TID 0000.0001) %MON ad_forcing_adqnet_mean       =   0.0000000000000E+00
(PID.TID 0000.0001) %MON ad_forcing_adqnet_sd         =   0.0000000000000E+00
(PID.TID 0000.0001) %MON ad_forcing_adqnet_del2       =   0.0000000000000E+00
(PID.TID 0000.0001) %MON ad_forcing_adqsw_max         =   0.0000000000000E+00
(PID.TID 0000.0001) %MON ad_forcing_adqsw_min         =   0.0000000000000E+00
(PID.TID 0000.0001) %MON ad_forcing_adqsw_mean        =   0.0000000000000E+00
(PID.TID 0000.0001) %MON ad_forcing_adqsw_sd          =   0.0000000000000E+00
(PID.TID 0000.0001) %MON ad_forcing_adqsw_del2        =   0.0000000000000E+00
(PID.TID 0000.0001) %MON ad_forcing_adempmr_max       =   0.0000000000000E+00
(PID.TID 0000.0001) %MON ad_forcing_adempmr_min       =   0.0000000000000E+00
(PID.TID 0000.0001) %MON ad_forcing_adempmr_mean      =   0.0000000000000E+00
(PID.TID 0000.0001) %MON ad_forcing_adempmr_sd        =   0.0000000000000E+00
(PID.TID 0000.0001) %MON ad_forcing_adempmr_del2      =   0.0000000000000E+00
(PID.TID 0000.0001) %MON ad_forcing_adfu_max          =   0.0000000000000E+00
(PID.TID 0000.0001) %MON ad_forcing_adfu_min          =   0.0000000000000E+00
(PID.TID 0000.0001) %MON ad_forcing_adfu_mean         =   0.0000000000000E+00
(PID.TID 0000.0001) %MON ad_forcing_adfu_sd           =   0.0000000000000E+00
(PID.TID 0000.0001) %MON ad_forcing_adfu_del2         =   0.0000000000000E+00
(PID.TID 0000.0001) %MON ad_forcing_adfv_max          =   0.0000000000000E+00
(PID.TID 0000.0001) %MON ad_forcing_adfv_min          =   0.0000000000000E+00
(PID.TID 0000.0001) %MON ad_forcing_adfv_mean         =   0.0000000000000E+00
(PID.TID 0000.0001) %MON ad_forcing_adfv_sd           =   0.0000000000000E+00
(PID.TID 0000.0001) %MON ad_forcing_adfv_del2         =   0.0000000000000E+00
(PID.TID 0000.0001) // =======================================================
(PID.TID 0000.0001) // End MONITOR dynamic field statistics
(PID.TID 0000.0001) // =======================================================
(PID.TID 0000.0001) // =======================================================
(PID.TID 0000.0001) // Begin AD_MONITOR SEAICE statistics
(PID.TID 0000.0001) // =======================================================
(PID.TID 0000.0001) %MON ad_seaice_tsnumber           =                     0
(PID.TID 0000.0001) %MON ad_seaice_time_sec           =   0.0000000000000E+00
(PID.TID 0000.0001) %MON ad_seaice_aduice_max         =   8.0809071163207E-01
(PID.TID 0000.0001) %MON ad_seaice_aduice_min         =  -3.8955311448847E-02
(PID.TID 0000.0001) %MON ad_seaice_aduice_mean        =   5.3402698569692E-04
(PID.TID 0000.0001) %MON ad_seaice_aduice_sd          =   1.7073360815203E-02
(PID.TID 0000.0001) %MON ad_seaice_aduice_del2        =   2.0290766571348E-04
(PID.TID 0000.0001) %MON ad_seaice_advice_max         =   1.5048607943876E-02
(PID.TID 0000.0001) %MON ad_seaice_advice_min         =  -4.0632244294866E-01
(PID.TID 0000.0001) %MON ad_seaice_advice_mean        =  -2.8657136427547E-04
(PID.TID 0000.0001) %MON ad_seaice_advice_sd          =   8.9209080857385E-03
(PID.TID 0000.0001) %MON ad_seaice_advice_del2        =   1.4987231723797E-04
(PID.TID 0000.0001) %MON ad_seaice_adarea_max         =   6.6590069097679E-02
(PID.TID 0000.0001) %MON ad_seaice_adarea_min         =  -5.0204520308019E-02
(PID.TID 0000.0001) %MON ad_seaice_adarea_mean        =   1.8365911063942E-04
(PID.TID 0000.0001) %MON ad_seaice_adarea_sd          =   3.6472122268598E-03
(PID.TID 0000.0001) %MON ad_seaice_adarea_del2        =   9.6199769561106E-05
(PID.TID 0000.0001) %MON ad_seaice_adheff_max         =   3.1562699527200E+01
(PID.TID 0000.0001) %MON ad_seaice_adheff_min         =  -3.8091655908662E+02
(PID.TID 0000.0001) %MON ad_seaice_adheff_mean        =  -2.4997551000988E+00
(PID.TID 0000.0001) %MON ad_seaice_adheff_sd          =   7.9778193367738E+00
(PID.TID 0000.0001) %MON ad_seaice_adheff_del2        =   9.5400237985337E-02
(PID.TID 0000.0001) %MON ad_seaice_adhsnow_max        =   1.3049231521911E+01
(PID.TID 0000.0001) %MON ad_seaice_adhsnow_min        =  -1.6094111715510E+02
(PID.TID 0000.0001) %MON ad_seaice_adhsnow_mean       =  -9.2921886318759E-01
(PID.TID 0000.0001) %MON ad_seaice_adhsnow_sd         =   3.1821864533117E+00
(PID.TID 0000.0001) %MON ad_seaice_adhsnow_del2       =   3.7469197792037E-02
(PID.TID 0000.0001) // =======================================================
(PID.TID 0000.0001) // End AD_MONITOR SEAICE statistics
(PID.TID 0000.0001) // =======================================================
 ph-pack: packing ecco_cost
 ph-pack: packing ecco_ctrl
(PID.TID 0000.0001) // =======================================================
(PID.TID 0000.0001) // Gradient-check starts (grdchk_main)
(PID.TID 0000.0001) // =======================================================
(PID.TID 0000.0001) grdchk reference fc: fcref       =  7.16024841882947E+04
grad-res -------------------------------
 grad-res  proc    #    i    j    k   bi   bj iobc       fc ref            fc + eps           fc - eps
 grad-res  proc    #    i    j    k   bi   bj iobc      adj grad            fd grad          1 - fd/adj
(PID.TID 0000.0001) ====== Starts gradient-check number   1 (=ichknum) =======
 ph-test icomp, ncvarcomp, ichknum            1      185786           1
 ph-grd _loc: bi, bj, icomptest, ichknum            1           1           0           1
 ph-grd -->hit<--            1           1           1           1
(PID.TID 0000.0001) grdchk pos: i,j,k=    1    1    1 ; bi,bj=   1   1 ; iobc=  1 ; rec=   1
(PID.TID 0000.0001) Start initial hydrostatic pressure computation
(PID.TID 0000.0001) Pressure is predetermined for buoyancyRelation OCEANIC
(PID.TID 0000.0001) 
(PID.TID 0000.0001) // =======================================================
(PID.TID 0000.0001) // Model current state
(PID.TID 0000.0001) // =======================================================
(PID.TID 0000.0001) 
(PID.TID 0000.0001) SOLVE_FOR_PRESSURE: putPmEinXvector =    F
 cg2d: Sum(rhs),rhsMax =   3.28986887568340E+00  6.80605257055798E+00
 cg2d: Sum(rhs),rhsMax =   6.18100738615680E+00  7.25298038461189E+00
 cg2d: Sum(rhs),rhsMax =   8.73999420480692E+00  6.92099930688204E+00
 cg2d: Sum(rhs),rhsMax =   1.11007238225184E+01  6.67443212015755E+00
 cg2d: Sum(rhs),rhsMax =   1.33292331125287E+01  6.42651121505705E+00
 cg2d: Sum(rhs),rhsMax =   1.52834640753065E+01  6.12698819313285E+00
 cg2d: Sum(rhs),rhsMax =   1.69401225961747E+01  5.76377387046292E+00
 cg2d: Sum(rhs),rhsMax =   1.83148733807758E+01  5.33864197144501E+00
(PID.TID 0000.0001) Did not write pickup because writePickupAtEnd = FALSE
(PID.TID 0000.0001) ph-cost call cost_theta0
(PID.TID 0000.0001) ph-cost call cost_salt0
(PID.TID 0000.0001) ph-cost call cost_theta
(PID.TID 0000.0001) ph-cost call cost_salt
(PID.TID 0000.0001) ph-cost gencost # 01
(PID.TID 0000.0001) ph-cost gencost # 02
(PID.TID 0000.0001) ph-cost gencost # 03
(PID.TID 0000.0001) ph-cost gencost # 04
(PID.TID 0000.0001) ph-cost gencost # 05
(PID.TID 0000.0001) ph-cost gencost # 06
(PID.TID 0000.0001) ph-cost gencost # 07
(PID.TID 0000.0001) ph-cost gencost # 08
(PID.TID 0000.0001) ph-cost gencost # 09
(PID.TID 0000.0001) ph-cost gencost # 10
(PID.TID 0000.0001) ph-cost gencost # 11
(PID.TID 0000.0001) ph-cost gencost # 12
(PID.TID 0000.0001) ph-cost gencost # 13
(PID.TID 0000.0001) ph-cost gencost # 14
(PID.TID 0000.0001) ph-cost gencost # 15
(PID.TID 0000.0001) ph-cost gencost # 16
(PID.TID 0000.0001) ph-cost gencost # 17
(PID.TID 0000.0001) ph-cost gencost # 18
(PID.TID 0000.0001) ph-cost gencost # 19
(PID.TID 0000.0001) ph-cost gencost # 20
 --> f_ice     = 0.000000000000000D+00
 --> f_smrarea = 0.000000000000000D+00
 --> f_smrarea = 0.000000000000000D+00
 --> f_smrarea = 0.000000000000000D+00
 --> f_temp    = 0.433747518315223D+05
 --> f_salt    = 0.282277348587985D+05
 --> f_temp0   = 0.999999955296517D-04
 --> f_salt0   = 0.000000000000000D+00
 --> f_temp0smoo = 0.000000000000000D+00
 --> f_salt0smoo = 0.000000000000000D+00
 --> f_etan0   = 0.000000000000000D+00
 --> f_uvel0   = 0.000000000000000D+00
 --> f_vvel0   = 0.000000000000000D+00
 --> f_sst     = 0.000000000000000D+00
 --> f_tmi     = 0.000000000000000D+00
 --> f_sss     = 0.000000000000000D+00
 --> f_bp      = 0.000000000000000D+00
 --> f_ies      = 0.000000000000000D+00
 --> f_ssh       = 0.000000000000000D+00
 --> f_tp        = 0.000000000000000D+00
 --> f_ers       = 0.000000000000000D+00
 --> f_gfo       = 0.000000000000000D+00
 --> f_tauu    = 0.000000000000000D+00
 --> f_tauum   = 0.000000000000000D+00
 --> f_tauusmoo = 0.000000000000000D+00
 --> f_tauv    = 0.000000000000000D+00
 --> f_tauvm   = 0.000000000000000D+00
 --> f_tauvsmoo = 0.000000000000000D+00
 --> f_hflux   = 0.000000000000000D+00
 --> f_hfluxmm = 0.000000000000000D+00
 --> f_hfluxsmoo = 0.000000000000000D+00
 --> f_sflux   = 0.000000000000000D+00
 --> f_sfluxmm = 0.000000000000000D+00
 --> f_sfluxsmoo = 0.000000000000000D+00
 --> f_uwind     = 0.000000000000000D+00
 --> f_vwind     = 0.000000000000000D+00
 --> f_atemp     = 0.000000000000000D+00
 --> f_aqh     = 0.000000000000000D+00
 --> f_precip  = 0.000000000000000D+00
 --> f_swflux  = 0.000000000000000D+00
 --> f_swdown  = 0.000000000000000D+00
 --> f_uwindm     = 0.000000000000000D+00
 --> f_vwindm     = 0.000000000000000D+00
 --> f_atempm     = 0.000000000000000D+00
 --> f_aqhm     = 0.000000000000000D+00
 --> f_precipm  = 0.000000000000000D+00
 --> f_swfluxm  = 0.000000000000000D+00
 --> f_swdownm  = 0.000000000000000D+00
 --> f_uwindsmoo     = 0.000000000000000D+00
 --> f_vwindsmoo     = 0.000000000000000D+00
 --> f_atempsmoo     = 0.000000000000000D+00
 --> f_aqhsmoo     = 0.000000000000000D+00
 --> f_precipsmoo  = 0.000000000000000D+00
 --> f_swfluxsmoo  = 0.000000000000000D+00
 --> f_swdownsmoo  = 0.000000000000000D+00
 --> f_atl     = 0.000000000000000D+00
 --> f_ctdt    = 0.000000000000000D+00
 --> f_ctds    = 0.000000000000000D+00
 --> f_ctdtclim= 0.000000000000000D+00
 --> f_ctdsclim= 0.000000000000000D+00
 --> f_xbt     = 0.000000000000000D+00
 --> f_argot   = 0.000000000000000D+00
 --> f_argos   = 0.000000000000000D+00
 --> f_drifter   = 0.000000000000000D+00
 --> f_tdrift  = 0.000000000000000D+00
 --> f_sdrift  = 0.000000000000000D+00
 --> f_wdrift  = 0.000000000000000D+00
 --> f_scatx   = 0.000000000000000D+00
 --> f_scaty   = 0.000000000000000D+00
 --> f_scatxm  = 0.000000000000000D+00
 --> f_scatym  = 0.000000000000000D+00
 --> f_obcsn   = 0.000000000000000D+00
 --> f_obcss   = 0.000000000000000D+00
 --> f_obcsw   = 0.000000000000000D+00
 --> f_obcse   = 0.000000000000000D+00
 --> f_ageos   = 0.000000000000000D+00
 --> f_curmtr  = 0.000000000000000D+00
 --> f_kapgm   = 0.000000000000000D+00
 --> f_kapredi   = 0.000000000000000D+00
 --> f_diffkr  = 0.000000000000000D+00
 --> f_eddytau = 0.000000000000000D+00
 --> f_bottomdrag = 0.000000000000000D+00
 --> f_hfluxmm2           = 0.000000000000000D+00
 --> f_sfluxmm2           = 0.000000000000000D+00
 --> f_transp             = 0.000000000000000D+00
 --> objf_hmean           = 0.000000000000000D+00
 --> fc               = 0.716024867903207D+05
 --> objf_test(bi,bj)   =  0.000000000000000D+00
 --> objf_tracer(bi,bj) =  0.000000000000000D+00
 --> objf_atl(bi,bj)    =  0.000000000000000D+00
 --> objf_test(bi,bj)   =  0.000000000000000D+00
 --> objf_tracer(bi,bj) =  0.000000000000000D+00
 --> objf_atl(bi,bj)    =  0.000000000000000D+00
 --> objf_test(bi,bj)   =  0.000000000000000D+00
 --> objf_tracer(bi,bj) =  0.000000000000000D+00
 --> objf_atl(bi,bj)    =  0.000000000000000D+00
 --> objf_test(bi,bj)   =  0.000000000000000D+00
 --> objf_tracer(bi,bj) =  0.000000000000000D+00
 --> objf_atl(bi,bj)    =  0.000000000000000D+00
 --> objf_test(bi,bj)   =  0.000000000000000D+00
 --> objf_tracer(bi,bj) =  0.000000000000000D+00
 --> objf_atl(bi,bj)    =  0.000000000000000D+00
 --> objf_test(bi,bj)   =  0.000000000000000D+00
 --> objf_tracer(bi,bj) =  0.000000000000000D+00
 --> objf_atl(bi,bj)    =  0.000000000000000D+00
 --> objf_test(bi,bj)   =  0.000000000000000D+00
 --> objf_tracer(bi,bj) =  0.000000000000000D+00
 --> objf_atl(bi,bj)    =  0.000000000000000D+00
 --> objf_test(bi,bj)   =  0.000000000000000D+00
 --> objf_tracer(bi,bj) =  0.000000000000000D+00
 --> objf_atl(bi,bj)    =  0.000000000000000D+00
 --> objf_test(bi,bj)   =  0.000000000000000D+00
 --> objf_tracer(bi,bj) =  0.000000000000000D+00
 --> objf_atl(bi,bj)    =  0.000000000000000D+00
 --> objf_test(bi,bj)   =  0.000000000000000D+00
 --> objf_tracer(bi,bj) =  0.000000000000000D+00
 --> objf_atl(bi,bj)    =  0.000000000000000D+00
 --> objf_test(bi,bj)   =  0.000000000000000D+00
 --> objf_tracer(bi,bj) =  0.000000000000000D+00
 --> objf_atl(bi,bj)    =  0.000000000000000D+00
 --> objf_test(bi,bj)   =  0.000000000000000D+00
 --> objf_tracer(bi,bj) =  0.000000000000000D+00
 --> objf_atl(bi,bj)    =  0.000000000000000D+00
 --> objf_test(bi,bj)   =  0.000000000000000D+00
 --> objf_tracer(bi,bj) =  0.000000000000000D+00
 --> objf_atl(bi,bj)    =  0.000000000000000D+00
 --> objf_test(bi,bj)   =  0.000000000000000D+00
 --> objf_tracer(bi,bj) =  0.000000000000000D+00
 --> objf_atl(bi,bj)    =  0.000000000000000D+00
 --> objf_test(bi,bj)   =  0.000000000000000D+00
 --> objf_tracer(bi,bj) =  0.000000000000000D+00
 --> objf_atl(bi,bj)    =  0.000000000000000D+00
 --> objf_test(bi,bj)   =  0.000000000000000D+00
 --> objf_tracer(bi,bj) =  0.000000000000000D+00
 --> objf_atl(bi,bj)    =  0.000000000000000D+00
 --> objf_test(bi,bj)   =  0.000000000000000D+00
 --> objf_tracer(bi,bj) =  0.000000000000000D+00
 --> objf_atl(bi,bj)    =  0.000000000000000D+00
 --> objf_test(bi,bj)   =  0.000000000000000D+00
 --> objf_tracer(bi,bj) =  0.000000000000000D+00
 --> objf_atl(bi,bj)    =  0.000000000000000D+00
 --> objf_test(bi,bj)   =  0.000000000000000D+00
 --> objf_tracer(bi,bj) =  0.000000000000000D+00
 --> objf_atl(bi,bj)    =  0.000000000000000D+00
 --> objf_test(bi,bj)   =  0.000000000000000D+00
 --> objf_tracer(bi,bj) =  0.000000000000000D+00
 --> objf_atl(bi,bj)    =  0.000000000000000D+00
 --> objf_test(bi,bj)   =  0.000000000000000D+00
 --> objf_tracer(bi,bj) =  0.000000000000000D+00
 --> objf_atl(bi,bj)    =  0.000000000000000D+00
 --> objf_test(bi,bj)   =  0.000000000000000D+00
 --> objf_tracer(bi,bj) =  0.000000000000000D+00
 --> objf_atl(bi,bj)    =  0.000000000000000D+00
 --> objf_test(bi,bj)   =  0.000000000000000D+00
 --> objf_tracer(bi,bj) =  0.000000000000000D+00
 --> objf_atl(bi,bj)    =  0.000000000000000D+00
 --> objf_test(bi,bj)   =  0.000000000000000D+00
 --> objf_tracer(bi,bj) =  0.000000000000000D+00
 --> objf_atl(bi,bj)    =  0.000000000000000D+00
  local fc =  0.716024867903207D+05
 global fc =  0.716024867903207D+05
(PID.TID 0000.0001) grdchk perturb(+)fc: fcpertplus  =  7.16024867903207E+04
(PID.TID 0000.0001) Start initial hydrostatic pressure computation
(PID.TID 0000.0001) Pressure is predetermined for buoyancyRelation OCEANIC
(PID.TID 0000.0001) 
(PID.TID 0000.0001) // =======================================================
(PID.TID 0000.0001) // Model current state
(PID.TID 0000.0001) // =======================================================
(PID.TID 0000.0001) 
(PID.TID 0000.0001) SOLVE_FOR_PRESSURE: putPmEinXvector =    F
 cg2d: Sum(rhs),rhsMax =   3.28986887568323E+00  6.80605256918418E+00
 cg2d: Sum(rhs),rhsMax =   6.18100985446687E+00  7.25298038216031E+00
 cg2d: Sum(rhs),rhsMax =   8.73999897417110E+00  6.92099930377744E+00
 cg2d: Sum(rhs),rhsMax =   1.11007310605794E+01  6.67443211670123E+00
 cg2d: Sum(rhs),rhsMax =   1.33292424671412E+01  6.42651121205717E+00
 cg2d: Sum(rhs),rhsMax =   1.52834754452648E+01  6.12698819142157E+00
 cg2d: Sum(rhs),rhsMax =   1.69401358135243E+01  5.76377387082085E+00
 cg2d: Sum(rhs),rhsMax =   1.83148888114950E+01  5.33864197474914E+00
(PID.TID 0000.0001) Did not write pickup because writePickupAtEnd = FALSE
(PID.TID 0000.0001) ph-cost call cost_theta0
(PID.TID 0000.0001) ph-cost call cost_salt0
(PID.TID 0000.0001) ph-cost call cost_theta
(PID.TID 0000.0001) ph-cost call cost_salt
(PID.TID 0000.0001) ph-cost gencost # 01
(PID.TID 0000.0001) ph-cost gencost # 02
(PID.TID 0000.0001) ph-cost gencost # 03
(PID.TID 0000.0001) ph-cost gencost # 04
(PID.TID 0000.0001) ph-cost gencost # 05
(PID.TID 0000.0001) ph-cost gencost # 06
(PID.TID 0000.0001) ph-cost gencost # 07
(PID.TID 0000.0001) ph-cost gencost # 08
(PID.TID 0000.0001) ph-cost gencost # 09
(PID.TID 0000.0001) ph-cost gencost # 10
(PID.TID 0000.0001) ph-cost gencost # 11
(PID.TID 0000.0001) ph-cost gencost # 12
(PID.TID 0000.0001) ph-cost gencost # 13
(PID.TID 0000.0001) ph-cost gencost # 14
(PID.TID 0000.0001) ph-cost gencost # 15
(PID.TID 0000.0001) ph-cost gencost # 16
(PID.TID 0000.0001) ph-cost gencost # 17
(PID.TID 0000.0001) ph-cost gencost # 18
(PID.TID 0000.0001) ph-cost gencost # 19
(PID.TID 0000.0001) ph-cost gencost # 20
 --> f_ice     = 0.000000000000000D+00
 --> f_smrarea = 0.000000000000000D+00
 --> f_smrarea = 0.000000000000000D+00
 --> f_smrarea = 0.000000000000000D+00
 --> f_temp    = 0.433747464036574D+05
 --> f_salt    = 0.282277353936120D+05
 --> f_temp0   = 0.999999955296517D-04
 --> f_salt0   = 0.000000000000000D+00
 --> f_temp0smoo = 0.000000000000000D+00
 --> f_salt0smoo = 0.000000000000000D+00
 --> f_etan0   = 0.000000000000000D+00
 --> f_uvel0   = 0.000000000000000D+00
 --> f_vvel0   = 0.000000000000000D+00
 --> f_sst     = 0.000000000000000D+00
 --> f_tmi     = 0.000000000000000D+00
 --> f_sss     = 0.000000000000000D+00
 --> f_bp      = 0.000000000000000D+00
 --> f_ies      = 0.000000000000000D+00
 --> f_ssh       = 0.000000000000000D+00
 --> f_tp        = 0.000000000000000D+00
 --> f_ers       = 0.000000000000000D+00
 --> f_gfo       = 0.000000000000000D+00
 --> f_tauu    = 0.000000000000000D+00
 --> f_tauum   = 0.000000000000000D+00
 --> f_tauusmoo = 0.000000000000000D+00
 --> f_tauv    = 0.000000000000000D+00
 --> f_tauvm   = 0.000000000000000D+00
 --> f_tauvsmoo = 0.000000000000000D+00
 --> f_hflux   = 0.000000000000000D+00
 --> f_hfluxmm = 0.000000000000000D+00
 --> f_hfluxsmoo = 0.000000000000000D+00
 --> f_sflux   = 0.000000000000000D+00
 --> f_sfluxmm = 0.000000000000000D+00
 --> f_sfluxsmoo = 0.000000000000000D+00
 --> f_uwind     = 0.000000000000000D+00
 --> f_vwind     = 0.000000000000000D+00
 --> f_atemp     = 0.000000000000000D+00
 --> f_aqh     = 0.000000000000000D+00
 --> f_precip  = 0.000000000000000D+00
 --> f_swflux  = 0.000000000000000D+00
 --> f_swdown  = 0.000000000000000D+00
 --> f_uwindm     = 0.000000000000000D+00
 --> f_vwindm     = 0.000000000000000D+00
 --> f_atempm     = 0.000000000000000D+00
 --> f_aqhm     = 0.000000000000000D+00
 --> f_precipm  = 0.000000000000000D+00
 --> f_swfluxm  = 0.000000000000000D+00
 --> f_swdownm  = 0.000000000000000D+00
 --> f_uwindsmoo     = 0.000000000000000D+00
 --> f_vwindsmoo     = 0.000000000000000D+00
 --> f_atempsmoo     = 0.000000000000000D+00
 --> f_aqhsmoo     = 0.000000000000000D+00
 --> f_precipsmoo  = 0.000000000000000D+00
 --> f_swfluxsmoo  = 0.000000000000000D+00
 --> f_swdownsmoo  = 0.000000000000000D+00
 --> f_atl     = 0.000000000000000D+00
 --> f_ctdt    = 0.000000000000000D+00
 --> f_ctds    = 0.000000000000000D+00
 --> f_ctdtclim= 0.000000000000000D+00
 --> f_ctdsclim= 0.000000000000000D+00
 --> f_xbt     = 0.000000000000000D+00
 --> f_argot   = 0.000000000000000D+00
 --> f_argos   = 0.000000000000000D+00
 --> f_drifter   = 0.000000000000000D+00
 --> f_tdrift  = 0.000000000000000D+00
 --> f_sdrift  = 0.000000000000000D+00
 --> f_wdrift  = 0.000000000000000D+00
 --> f_scatx   = 0.000000000000000D+00
 --> f_scaty   = 0.000000000000000D+00
 --> f_scatxm  = 0.000000000000000D+00
 --> f_scatym  = 0.000000000000000D+00
 --> f_obcsn   = 0.000000000000000D+00
 --> f_obcss   = 0.000000000000000D+00
 --> f_obcsw   = 0.000000000000000D+00
 --> f_obcse   = 0.000000000000000D+00
 --> f_ageos   = 0.000000000000000D+00
 --> f_curmtr  = 0.000000000000000D+00
 --> f_kapgm   = 0.000000000000000D+00
 --> f_kapredi   = 0.000000000000000D+00
 --> f_diffkr  = 0.000000000000000D+00
 --> f_eddytau = 0.000000000000000D+00
 --> f_bottomdrag = 0.000000000000000D+00
 --> f_hfluxmm2           = 0.000000000000000D+00
 --> f_sfluxmm2           = 0.000000000000000D+00
 --> f_transp             = 0.000000000000000D+00
 --> objf_hmean           = 0.000000000000000D+00
 --> fc               = 0.716024818972694D+05
 --> objf_test(bi,bj)   =  0.000000000000000D+00
 --> objf_tracer(bi,bj) =  0.000000000000000D+00
 --> objf_atl(bi,bj)    =  0.000000000000000D+00
 --> objf_test(bi,bj)   =  0.000000000000000D+00
 --> objf_tracer(bi,bj) =  0.000000000000000D+00
 --> objf_atl(bi,bj)    =  0.000000000000000D+00
 --> objf_test(bi,bj)   =  0.000000000000000D+00
 --> objf_tracer(bi,bj) =  0.000000000000000D+00
 --> objf_atl(bi,bj)    =  0.000000000000000D+00
 --> objf_test(bi,bj)   =  0.000000000000000D+00
 --> objf_tracer(bi,bj) =  0.000000000000000D+00
 --> objf_atl(bi,bj)    =  0.000000000000000D+00
 --> objf_test(bi,bj)   =  0.000000000000000D+00
 --> objf_tracer(bi,bj) =  0.000000000000000D+00
 --> objf_atl(bi,bj)    =  0.000000000000000D+00
 --> objf_test(bi,bj)   =  0.000000000000000D+00
 --> objf_tracer(bi,bj) =  0.000000000000000D+00
 --> objf_atl(bi,bj)    =  0.000000000000000D+00
 --> objf_test(bi,bj)   =  0.000000000000000D+00
 --> objf_tracer(bi,bj) =  0.000000000000000D+00
 --> objf_atl(bi,bj)    =  0.000000000000000D+00
 --> objf_test(bi,bj)   =  0.000000000000000D+00
 --> objf_tracer(bi,bj) =  0.000000000000000D+00
 --> objf_atl(bi,bj)    =  0.000000000000000D+00
 --> objf_test(bi,bj)   =  0.000000000000000D+00
 --> objf_tracer(bi,bj) =  0.000000000000000D+00
 --> objf_atl(bi,bj)    =  0.000000000000000D+00
 --> objf_test(bi,bj)   =  0.000000000000000D+00
 --> objf_tracer(bi,bj) =  0.000000000000000D+00
 --> objf_atl(bi,bj)    =  0.000000000000000D+00
 --> objf_test(bi,bj)   =  0.000000000000000D+00
 --> objf_tracer(bi,bj) =  0.000000000000000D+00
 --> objf_atl(bi,bj)    =  0.000000000000000D+00
 --> objf_test(bi,bj)   =  0.000000000000000D+00
 --> objf_tracer(bi,bj) =  0.000000000000000D+00
 --> objf_atl(bi,bj)    =  0.000000000000000D+00
 --> objf_test(bi,bj)   =  0.000000000000000D+00
 --> objf_tracer(bi,bj) =  0.000000000000000D+00
 --> objf_atl(bi,bj)    =  0.000000000000000D+00
 --> objf_test(bi,bj)   =  0.000000000000000D+00
 --> objf_tracer(bi,bj) =  0.000000000000000D+00
 --> objf_atl(bi,bj)    =  0.000000000000000D+00
 --> objf_test(bi,bj)   =  0.000000000000000D+00
 --> objf_tracer(bi,bj) =  0.000000000000000D+00
 --> objf_atl(bi,bj)    =  0.000000000000000D+00
 --> objf_test(bi,bj)   =  0.000000000000000D+00
 --> objf_tracer(bi,bj) =  0.000000000000000D+00
 --> objf_atl(bi,bj)    =  0.000000000000000D+00
 --> objf_test(bi,bj)   =  0.000000000000000D+00
 --> objf_tracer(bi,bj) =  0.000000000000000D+00
 --> objf_atl(bi,bj)    =  0.000000000000000D+00
 --> objf_test(bi,bj)   =  0.000000000000000D+00
 --> objf_tracer(bi,bj) =  0.000000000000000D+00
 --> objf_atl(bi,bj)    =  0.000000000000000D+00
 --> objf_test(bi,bj)   =  0.000000000000000D+00
 --> objf_tracer(bi,bj) =  0.000000000000000D+00
 --> objf_atl(bi,bj)    =  0.000000000000000D+00
 --> objf_test(bi,bj)   =  0.000000000000000D+00
 --> objf_tracer(bi,bj) =  0.000000000000000D+00
 --> objf_atl(bi,bj)    =  0.000000000000000D+00
 --> objf_test(bi,bj)   =  0.000000000000000D+00
 --> objf_tracer(bi,bj) =  0.000000000000000D+00
 --> objf_atl(bi,bj)    =  0.000000000000000D+00
 --> objf_test(bi,bj)   =  0.000000000000000D+00
 --> objf_tracer(bi,bj) =  0.000000000000000D+00
 --> objf_atl(bi,bj)    =  0.000000000000000D+00
 --> objf_test(bi,bj)   =  0.000000000000000D+00
 --> objf_tracer(bi,bj) =  0.000000000000000D+00
 --> objf_atl(bi,bj)    =  0.000000000000000D+00
 --> objf_test(bi,bj)   =  0.000000000000000D+00
 --> objf_tracer(bi,bj) =  0.000000000000000D+00
 --> objf_atl(bi,bj)    =  0.000000000000000D+00
  local fc =  0.716024818972694D+05
 global fc =  0.716024818972694D+05
(PID.TID 0000.0001) grdchk perturb(-)fc: fcpertminus =  7.16024818972694E+04
grad-res -------------------------------
 grad-res     0    1    1    1    1    1    1    1   7.16024841883E+04  7.16024867903E+04  7.16024818973E+04
 grad-res     0    1    1    1    0    1    1    1   3.41084986925E-01  2.44652565743E-01  2.82722561468E-01
(PID.TID 0000.0001)  ADM  ref_cost_function      =  7.16024841882947E+04
(PID.TID 0000.0001)  ADM  adjoint_gradient       =  3.41084986925125E-01
(PID.TID 0000.0001)  ADM  finite-diff_grad       =  2.44652565743309E-01
(PID.TID 0000.0001) ====== End of gradient-check number   1 (ierr=  0) =======
(PID.TID 0000.0001) ====== Starts gradient-check number   2 (=ichknum) =======
 ph-test icomp, ncvarcomp, ichknum            2      185786           2
 ph-grd _loc: bi, bj, icomptest, ichknum            1           1           1           2
 ph-grd -->hit<--            2           1           1           1
(PID.TID 0000.0001) grdchk pos: i,j,k=    2    1    1 ; bi,bj=   1   1 ; iobc=  1 ; rec=   1
(PID.TID 0000.0001) Start initial hydrostatic pressure computation
(PID.TID 0000.0001) Pressure is predetermined for buoyancyRelation OCEANIC
(PID.TID 0000.0001) 
(PID.TID 0000.0001) // =======================================================
(PID.TID 0000.0001) // Model current state
(PID.TID 0000.0001) // =======================================================
(PID.TID 0000.0001) 
(PID.TID 0000.0001) SOLVE_FOR_PRESSURE: putPmEinXvector =    F
 cg2d: Sum(rhs),rhsMax =   3.28986887568333E+00  6.80605257072685E+00
 cg2d: Sum(rhs),rhsMax =   6.18100708194040E+00  7.25298038493441E+00
 cg2d: Sum(rhs),rhsMax =   8.73999358249770E+00  6.92099930727399E+00
 cg2d: Sum(rhs),rhsMax =   1.11007230050741E+01  6.67443212059463E+00
 cg2d: Sum(rhs),rhsMax =   1.33292319799845E+01  6.42651121548429E+00
 cg2d: Sum(rhs),rhsMax =   1.52834627400620E+01  6.12698819341832E+00
 cg2d: Sum(rhs),rhsMax =   1.69401209043549E+01  5.76377387051210E+00
 cg2d: Sum(rhs),rhsMax =   1.83148713871195E+01  5.33864197116514E+00
(PID.TID 0000.0001) Did not write pickup because writePickupAtEnd = FALSE
(PID.TID 0000.0001) ph-cost call cost_theta0
(PID.TID 0000.0001) ph-cost call cost_salt0
(PID.TID 0000.0001) ph-cost call cost_theta
(PID.TID 0000.0001) ph-cost call cost_salt
(PID.TID 0000.0001) ph-cost gencost # 01
(PID.TID 0000.0001) ph-cost gencost # 02
(PID.TID 0000.0001) ph-cost gencost # 03
(PID.TID 0000.0001) ph-cost gencost # 04
(PID.TID 0000.0001) ph-cost gencost # 05
(PID.TID 0000.0001) ph-cost gencost # 06
(PID.TID 0000.0001) ph-cost gencost # 07
(PID.TID 0000.0001) ph-cost gencost # 08
(PID.TID 0000.0001) ph-cost gencost # 09
(PID.TID 0000.0001) ph-cost gencost # 10
(PID.TID 0000.0001) ph-cost gencost # 11
(PID.TID 0000.0001) ph-cost gencost # 12
(PID.TID 0000.0001) ph-cost gencost # 13
(PID.TID 0000.0001) ph-cost gencost # 14
(PID.TID 0000.0001) ph-cost gencost # 15
(PID.TID 0000.0001) ph-cost gencost # 16
(PID.TID 0000.0001) ph-cost gencost # 17
(PID.TID 0000.0001) ph-cost gencost # 18
(PID.TID 0000.0001) ph-cost gencost # 19
(PID.TID 0000.0001) ph-cost gencost # 20
 --> f_ice     = 0.000000000000000D+00
 --> f_smrarea = 0.000000000000000D+00
 --> f_smrarea = 0.000000000000000D+00
 --> f_smrarea = 0.000000000000000D+00
 --> f_temp    = 0.433747563973453D+05
 --> f_salt    = 0.282277349844917D+05
 --> f_temp0   = 0.999999955296517D-04
 --> f_salt0   = 0.000000000000000D+00
 --> f_temp0smoo = 0.000000000000000D+00
 --> f_salt0smoo = 0.000000000000000D+00
 --> f_etan0   = 0.000000000000000D+00
 --> f_uvel0   = 0.000000000000000D+00
 --> f_vvel0   = 0.000000000000000D+00
 --> f_sst     = 0.000000000000000D+00
 --> f_tmi     = 0.000000000000000D+00
 --> f_sss     = 0.000000000000000D+00
 --> f_bp      = 0.000000000000000D+00
 --> f_ies      = 0.000000000000000D+00
 --> f_ssh       = 0.000000000000000D+00
 --> f_tp        = 0.000000000000000D+00
 --> f_ers       = 0.000000000000000D+00
 --> f_gfo       = 0.000000000000000D+00
 --> f_tauu    = 0.000000000000000D+00
 --> f_tauum   = 0.000000000000000D+00
 --> f_tauusmoo = 0.000000000000000D+00
 --> f_tauv    = 0.000000000000000D+00
 --> f_tauvm   = 0.000000000000000D+00
 --> f_tauvsmoo = 0.000000000000000D+00
 --> f_hflux   = 0.000000000000000D+00
 --> f_hfluxmm = 0.000000000000000D+00
 --> f_hfluxsmoo = 0.000000000000000D+00
 --> f_sflux   = 0.000000000000000D+00
 --> f_sfluxmm = 0.000000000000000D+00
 --> f_sfluxsmoo = 0.000000000000000D+00
 --> f_uwind     = 0.000000000000000D+00
 --> f_vwind     = 0.000000000000000D+00
 --> f_atemp     = 0.000000000000000D+00
 --> f_aqh     = 0.000000000000000D+00
 --> f_precip  = 0.000000000000000D+00
 --> f_swflux  = 0.000000000000000D+00
 --> f_swdown  = 0.000000000000000D+00
 --> f_uwindm     = 0.000000000000000D+00
 --> f_vwindm     = 0.000000000000000D+00
 --> f_atempm     = 0.000000000000000D+00
 --> f_aqhm     = 0.000000000000000D+00
 --> f_precipm  = 0.000000000000000D+00
 --> f_swfluxm  = 0.000000000000000D+00
 --> f_swdownm  = 0.000000000000000D+00
 --> f_uwindsmoo     = 0.000000000000000D+00
 --> f_vwindsmoo     = 0.000000000000000D+00
 --> f_atempsmoo     = 0.000000000000000D+00
 --> f_aqhsmoo     = 0.000000000000000D+00
 --> f_precipsmoo  = 0.000000000000000D+00
 --> f_swfluxsmoo  = 0.000000000000000D+00
 --> f_swdownsmoo  = 0.000000000000000D+00
 --> f_atl     = 0.000000000000000D+00
 --> f_ctdt    = 0.000000000000000D+00
 --> f_ctds    = 0.000000000000000D+00
 --> f_ctdtclim= 0.000000000000000D+00
 --> f_ctdsclim= 0.000000000000000D+00
 --> f_xbt     = 0.000000000000000D+00
 --> f_argot   = 0.000000000000000D+00
 --> f_argos   = 0.000000000000000D+00
 --> f_drifter   = 0.000000000000000D+00
 --> f_tdrift  = 0.000000000000000D+00
 --> f_sdrift  = 0.000000000000000D+00
 --> f_wdrift  = 0.000000000000000D+00
 --> f_scatx   = 0.000000000000000D+00
 --> f_scaty   = 0.000000000000000D+00
 --> f_scatxm  = 0.000000000000000D+00
 --> f_scatym  = 0.000000000000000D+00
 --> f_obcsn   = 0.000000000000000D+00
 --> f_obcss   = 0.000000000000000D+00
 --> f_obcsw   = 0.000000000000000D+00
 --> f_obcse   = 0.000000000000000D+00
 --> f_ageos   = 0.000000000000000D+00
 --> f_curmtr  = 0.000000000000000D+00
 --> f_kapgm   = 0.000000000000000D+00
 --> f_kapredi   = 0.000000000000000D+00
 --> f_diffkr  = 0.000000000000000D+00
 --> f_eddytau = 0.000000000000000D+00
 --> f_bottomdrag = 0.000000000000000D+00
 --> f_hfluxmm2           = 0.000000000000000D+00
 --> f_sfluxmm2           = 0.000000000000000D+00
 --> f_transp             = 0.000000000000000D+00
 --> objf_hmean           = 0.000000000000000D+00
 --> fc               = 0.716024914818370D+05
 --> objf_test(bi,bj)   =  0.000000000000000D+00
 --> objf_tracer(bi,bj) =  0.000000000000000D+00
 --> objf_atl(bi,bj)    =  0.000000000000000D+00
 --> objf_test(bi,bj)   =  0.000000000000000D+00
 --> objf_tracer(bi,bj) =  0.000000000000000D+00
 --> objf_atl(bi,bj)    =  0.000000000000000D+00
 --> objf_test(bi,bj)   =  0.000000000000000D+00
 --> objf_tracer(bi,bj) =  0.000000000000000D+00
 --> objf_atl(bi,bj)    =  0.000000000000000D+00
 --> objf_test(bi,bj)   =  0.000000000000000D+00
 --> objf_tracer(bi,bj) =  0.000000000000000D+00
 --> objf_atl(bi,bj)    =  0.000000000000000D+00
 --> objf_test(bi,bj)   =  0.000000000000000D+00
 --> objf_tracer(bi,bj) =  0.000000000000000D+00
 --> objf_atl(bi,bj)    =  0.000000000000000D+00
 --> objf_test(bi,bj)   =  0.000000000000000D+00
 --> objf_tracer(bi,bj) =  0.000000000000000D+00
 --> objf_atl(bi,bj)    =  0.000000000000000D+00
 --> objf_test(bi,bj)   =  0.000000000000000D+00
 --> objf_tracer(bi,bj) =  0.000000000000000D+00
 --> objf_atl(bi,bj)    =  0.000000000000000D+00
 --> objf_test(bi,bj)   =  0.000000000000000D+00
 --> objf_tracer(bi,bj) =  0.000000000000000D+00
 --> objf_atl(bi,bj)    =  0.000000000000000D+00
 --> objf_test(bi,bj)   =  0.000000000000000D+00
 --> objf_tracer(bi,bj) =  0.000000000000000D+00
 --> objf_atl(bi,bj)    =  0.000000000000000D+00
 --> objf_test(bi,bj)   =  0.000000000000000D+00
 --> objf_tracer(bi,bj) =  0.000000000000000D+00
 --> objf_atl(bi,bj)    =  0.000000000000000D+00
 --> objf_test(bi,bj)   =  0.000000000000000D+00
 --> objf_tracer(bi,bj) =  0.000000000000000D+00
 --> objf_atl(bi,bj)    =  0.000000000000000D+00
 --> objf_test(bi,bj)   =  0.000000000000000D+00
 --> objf_tracer(bi,bj) =  0.000000000000000D+00
 --> objf_atl(bi,bj)    =  0.000000000000000D+00
 --> objf_test(bi,bj)   =  0.000000000000000D+00
 --> objf_tracer(bi,bj) =  0.000000000000000D+00
 --> objf_atl(bi,bj)    =  0.000000000000000D+00
 --> objf_test(bi,bj)   =  0.000000000000000D+00
 --> objf_tracer(bi,bj) =  0.000000000000000D+00
 --> objf_atl(bi,bj)    =  0.000000000000000D+00
 --> objf_test(bi,bj)   =  0.000000000000000D+00
 --> objf_tracer(bi,bj) =  0.000000000000000D+00
 --> objf_atl(bi,bj)    =  0.000000000000000D+00
 --> objf_test(bi,bj)   =  0.000000000000000D+00
 --> objf_tracer(bi,bj) =  0.000000000000000D+00
 --> objf_atl(bi,bj)    =  0.000000000000000D+00
 --> objf_test(bi,bj)   =  0.000000000000000D+00
 --> objf_tracer(bi,bj) =  0.000000000000000D+00
 --> objf_atl(bi,bj)    =  0.000000000000000D+00
 --> objf_test(bi,bj)   =  0.000000000000000D+00
 --> objf_tracer(bi,bj) =  0.000000000000000D+00
 --> objf_atl(bi,bj)    =  0.000000000000000D+00
 --> objf_test(bi,bj)   =  0.000000000000000D+00
 --> objf_tracer(bi,bj) =  0.000000000000000D+00
 --> objf_atl(bi,bj)    =  0.000000000000000D+00
 --> objf_test(bi,bj)   =  0.000000000000000D+00
 --> objf_tracer(bi,bj) =  0.000000000000000D+00
 --> objf_atl(bi,bj)    =  0.000000000000000D+00
 --> objf_test(bi,bj)   =  0.000000000000000D+00
 --> objf_tracer(bi,bj) =  0.000000000000000D+00
 --> objf_atl(bi,bj)    =  0.000000000000000D+00
 --> objf_test(bi,bj)   =  0.000000000000000D+00
 --> objf_tracer(bi,bj) =  0.000000000000000D+00
 --> objf_atl(bi,bj)    =  0.000000000000000D+00
 --> objf_test(bi,bj)   =  0.000000000000000D+00
 --> objf_tracer(bi,bj) =  0.000000000000000D+00
 --> objf_atl(bi,bj)    =  0.000000000000000D+00
 --> objf_test(bi,bj)   =  0.000000000000000D+00
 --> objf_tracer(bi,bj) =  0.000000000000000D+00
 --> objf_atl(bi,bj)    =  0.000000000000000D+00
  local fc =  0.716024914818370D+05
 global fc =  0.716024914818370D+05
(PID.TID 0000.0001) grdchk perturb(+)fc: fcpertplus  =  7.16024914818370E+04
(PID.TID 0000.0001) Start initial hydrostatic pressure computation
(PID.TID 0000.0001) Pressure is predetermined for buoyancyRelation OCEANIC
(PID.TID 0000.0001) 
(PID.TID 0000.0001) // =======================================================
(PID.TID 0000.0001) // Model current state
(PID.TID 0000.0001) // =======================================================
(PID.TID 0000.0001) 
(PID.TID 0000.0001) SOLVE_FOR_PRESSURE: putPmEinXvector =    F
 cg2d: Sum(rhs),rhsMax =   3.28986887568335E+00  6.80605256901537E+00
 cg2d: Sum(rhs),rhsMax =   6.18101015859184E+00  7.25298038183822E+00
 cg2d: Sum(rhs),rhsMax =   8.73999959647551E+00  6.92099930338735E+00
 cg2d: Sum(rhs),rhsMax =   1.11007318742155E+01  6.67443211626492E+00
 cg2d: Sum(rhs),rhsMax =   1.33292435943053E+01  6.42651121163021E+00
 cg2d: Sum(rhs),rhsMax =   1.52834769229831E+01  6.12698819108834E+00
 cg2d: Sum(rhs),rhsMax =   1.69401376368391E+01  5.76377387073430E+00
 cg2d: Sum(rhs),rhsMax =   1.83148908887484E+01  5.33864197507692E+00
(PID.TID 0000.0001) Did not write pickup because writePickupAtEnd = FALSE
(PID.TID 0000.0001) ph-cost call cost_theta0
(PID.TID 0000.0001) ph-cost call cost_salt0
(PID.TID 0000.0001) ph-cost call cost_theta
(PID.TID 0000.0001) ph-cost call cost_salt
(PID.TID 0000.0001) ph-cost gencost # 01
(PID.TID 0000.0001) ph-cost gencost # 02
(PID.TID 0000.0001) ph-cost gencost # 03
(PID.TID 0000.0001) ph-cost gencost # 04
(PID.TID 0000.0001) ph-cost gencost # 05
(PID.TID 0000.0001) ph-cost gencost # 06
(PID.TID 0000.0001) ph-cost gencost # 07
(PID.TID 0000.0001) ph-cost gencost # 08
(PID.TID 0000.0001) ph-cost gencost # 09
(PID.TID 0000.0001) ph-cost gencost # 10
(PID.TID 0000.0001) ph-cost gencost # 11
(PID.TID 0000.0001) ph-cost gencost # 12
(PID.TID 0000.0001) ph-cost gencost # 13
(PID.TID 0000.0001) ph-cost gencost # 14
(PID.TID 0000.0001) ph-cost gencost # 15
(PID.TID 0000.0001) ph-cost gencost # 16
(PID.TID 0000.0001) ph-cost gencost # 17
(PID.TID 0000.0001) ph-cost gencost # 18
(PID.TID 0000.0001) ph-cost gencost # 19
(PID.TID 0000.0001) ph-cost gencost # 20
 --> f_ice     = 0.000000000000000D+00
 --> f_smrarea = 0.000000000000000D+00
 --> f_smrarea = 0.000000000000000D+00
 --> f_smrarea = 0.000000000000000D+00
 --> f_temp    = 0.433747418694511D+05
 --> f_salt    = 0.282277353991178D+05
 --> f_temp0   = 0.999999955296517D-04
 --> f_salt0   = 0.000000000000000D+00
 --> f_temp0smoo = 0.000000000000000D+00
 --> f_salt0smoo = 0.000000000000000D+00
 --> f_etan0   = 0.000000000000000D+00
 --> f_uvel0   = 0.000000000000000D+00
 --> f_vvel0   = 0.000000000000000D+00
 --> f_sst     = 0.000000000000000D+00
 --> f_tmi     = 0.000000000000000D+00
 --> f_sss     = 0.000000000000000D+00
 --> f_bp      = 0.000000000000000D+00
 --> f_ies      = 0.000000000000000D+00
 --> f_ssh       = 0.000000000000000D+00
 --> f_tp        = 0.000000000000000D+00
 --> f_ers       = 0.000000000000000D+00
 --> f_gfo       = 0.000000000000000D+00
 --> f_tauu    = 0.000000000000000D+00
 --> f_tauum   = 0.000000000000000D+00
 --> f_tauusmoo = 0.000000000000000D+00
 --> f_tauv    = 0.000000000000000D+00
 --> f_tauvm   = 0.000000000000000D+00
 --> f_tauvsmoo = 0.000000000000000D+00
 --> f_hflux   = 0.000000000000000D+00
 --> f_hfluxmm = 0.000000000000000D+00
 --> f_hfluxsmoo = 0.000000000000000D+00
 --> f_sflux   = 0.000000000000000D+00
 --> f_sfluxmm = 0.000000000000000D+00
 --> f_sfluxsmoo = 0.000000000000000D+00
 --> f_uwind     = 0.000000000000000D+00
 --> f_vwind     = 0.000000000000000D+00
 --> f_atemp     = 0.000000000000000D+00
 --> f_aqh     = 0.000000000000000D+00
 --> f_precip  = 0.000000000000000D+00
 --> f_swflux  = 0.000000000000000D+00
 --> f_swdown  = 0.000000000000000D+00
 --> f_uwindm     = 0.000000000000000D+00
 --> f_vwindm     = 0.000000000000000D+00
 --> f_atempm     = 0.000000000000000D+00
 --> f_aqhm     = 0.000000000000000D+00
 --> f_precipm  = 0.000000000000000D+00
 --> f_swfluxm  = 0.000000000000000D+00
 --> f_swdownm  = 0.000000000000000D+00
 --> f_uwindsmoo     = 0.000000000000000D+00
 --> f_vwindsmoo     = 0.000000000000000D+00
 --> f_atempsmoo     = 0.000000000000000D+00
 --> f_aqhsmoo     = 0.000000000000000D+00
 --> f_precipsmoo  = 0.000000000000000D+00
 --> f_swfluxsmoo  = 0.000000000000000D+00
 --> f_swdownsmoo  = 0.000000000000000D+00
 --> f_atl     = 0.000000000000000D+00
 --> f_ctdt    = 0.000000000000000D+00
 --> f_ctds    = 0.000000000000000D+00
 --> f_ctdtclim= 0.000000000000000D+00
 --> f_ctdsclim= 0.000000000000000D+00
 --> f_xbt     = 0.000000000000000D+00
 --> f_argot   = 0.000000000000000D+00
 --> f_argos   = 0.000000000000000D+00
 --> f_drifter   = 0.000000000000000D+00
 --> f_tdrift  = 0.000000000000000D+00
 --> f_sdrift  = 0.000000000000000D+00
 --> f_wdrift  = 0.000000000000000D+00
 --> f_scatx   = 0.000000000000000D+00
 --> f_scaty   = 0.000000000000000D+00
 --> f_scatxm  = 0.000000000000000D+00
 --> f_scatym  = 0.000000000000000D+00
 --> f_obcsn   = 0.000000000000000D+00
 --> f_obcss   = 0.000000000000000D+00
 --> f_obcsw   = 0.000000000000000D+00
 --> f_obcse   = 0.000000000000000D+00
 --> f_ageos   = 0.000000000000000D+00
 --> f_curmtr  = 0.000000000000000D+00
 --> f_kapgm   = 0.000000000000000D+00
 --> f_kapredi   = 0.000000000000000D+00
 --> f_diffkr  = 0.000000000000000D+00
 --> f_eddytau = 0.000000000000000D+00
 --> f_bottomdrag = 0.000000000000000D+00
 --> f_hfluxmm2           = 0.000000000000000D+00
 --> f_sfluxmm2           = 0.000000000000000D+00
 --> f_transp             = 0.000000000000000D+00
 --> objf_hmean           = 0.000000000000000D+00
 --> fc               = 0.716024773685689D+05
 --> objf_test(bi,bj)   =  0.000000000000000D+00
 --> objf_tracer(bi,bj) =  0.000000000000000D+00
 --> objf_atl(bi,bj)    =  0.000000000000000D+00
 --> objf_test(bi,bj)   =  0.000000000000000D+00
 --> objf_tracer(bi,bj) =  0.000000000000000D+00
 --> objf_atl(bi,bj)    =  0.000000000000000D+00
 --> objf_test(bi,bj)   =  0.000000000000000D+00
 --> objf_tracer(bi,bj) =  0.000000000000000D+00
 --> objf_atl(bi,bj)    =  0.000000000000000D+00
 --> objf_test(bi,bj)   =  0.000000000000000D+00
 --> objf_tracer(bi,bj) =  0.000000000000000D+00
 --> objf_atl(bi,bj)    =  0.000000000000000D+00
 --> objf_test(bi,bj)   =  0.000000000000000D+00
 --> objf_tracer(bi,bj) =  0.000000000000000D+00
 --> objf_atl(bi,bj)    =  0.000000000000000D+00
 --> objf_test(bi,bj)   =  0.000000000000000D+00
 --> objf_tracer(bi,bj) =  0.000000000000000D+00
 --> objf_atl(bi,bj)    =  0.000000000000000D+00
 --> objf_test(bi,bj)   =  0.000000000000000D+00
 --> objf_tracer(bi,bj) =  0.000000000000000D+00
 --> objf_atl(bi,bj)    =  0.000000000000000D+00
 --> objf_test(bi,bj)   =  0.000000000000000D+00
 --> objf_tracer(bi,bj) =  0.000000000000000D+00
 --> objf_atl(bi,bj)    =  0.000000000000000D+00
 --> objf_test(bi,bj)   =  0.000000000000000D+00
 --> objf_tracer(bi,bj) =  0.000000000000000D+00
 --> objf_atl(bi,bj)    =  0.000000000000000D+00
 --> objf_test(bi,bj)   =  0.000000000000000D+00
 --> objf_tracer(bi,bj) =  0.000000000000000D+00
 --> objf_atl(bi,bj)    =  0.000000000000000D+00
 --> objf_test(bi,bj)   =  0.000000000000000D+00
 --> objf_tracer(bi,bj) =  0.000000000000000D+00
 --> objf_atl(bi,bj)    =  0.000000000000000D+00
 --> objf_test(bi,bj)   =  0.000000000000000D+00
 --> objf_tracer(bi,bj) =  0.000000000000000D+00
 --> objf_atl(bi,bj)    =  0.000000000000000D+00
 --> objf_test(bi,bj)   =  0.000000000000000D+00
 --> objf_tracer(bi,bj) =  0.000000000000000D+00
 --> objf_atl(bi,bj)    =  0.000000000000000D+00
 --> objf_test(bi,bj)   =  0.000000000000000D+00
 --> objf_tracer(bi,bj) =  0.000000000000000D+00
 --> objf_atl(bi,bj)    =  0.000000000000000D+00
 --> objf_test(bi,bj)   =  0.000000000000000D+00
 --> objf_tracer(bi,bj) =  0.000000000000000D+00
 --> objf_atl(bi,bj)    =  0.000000000000000D+00
 --> objf_test(bi,bj)   =  0.000000000000000D+00
 --> objf_tracer(bi,bj) =  0.000000000000000D+00
 --> objf_atl(bi,bj)    =  0.000000000000000D+00
 --> objf_test(bi,bj)   =  0.000000000000000D+00
 --> objf_tracer(bi,bj) =  0.000000000000000D+00
 --> objf_atl(bi,bj)    =  0.000000000000000D+00
 --> objf_test(bi,bj)   =  0.000000000000000D+00
 --> objf_tracer(bi,bj) =  0.000000000000000D+00
 --> objf_atl(bi,bj)    =  0.000000000000000D+00
 --> objf_test(bi,bj)   =  0.000000000000000D+00
 --> objf_tracer(bi,bj) =  0.000000000000000D+00
 --> objf_atl(bi,bj)    =  0.000000000000000D+00
 --> objf_test(bi,bj)   =  0.000000000000000D+00
 --> objf_tracer(bi,bj) =  0.000000000000000D+00
 --> objf_atl(bi,bj)    =  0.000000000000000D+00
 --> objf_test(bi,bj)   =  0.000000000000000D+00
 --> objf_tracer(bi,bj) =  0.000000000000000D+00
 --> objf_atl(bi,bj)    =  0.000000000000000D+00
 --> objf_test(bi,bj)   =  0.000000000000000D+00
 --> objf_tracer(bi,bj) =  0.000000000000000D+00
 --> objf_atl(bi,bj)    =  0.000000000000000D+00
 --> objf_test(bi,bj)   =  0.000000000000000D+00
 --> objf_tracer(bi,bj) =  0.000000000000000D+00
 --> objf_atl(bi,bj)    =  0.000000000000000D+00
 --> objf_test(bi,bj)   =  0.000000000000000D+00
 --> objf_tracer(bi,bj) =  0.000000000000000D+00
 --> objf_atl(bi,bj)    =  0.000000000000000D+00
  local fc =  0.716024773685689D+05
 global fc =  0.716024773685689D+05
(PID.TID 0000.0001) grdchk perturb(-)fc: fcpertminus =  7.16024773685689E+04
grad-res -------------------------------
 grad-res     0    2    2    1    1    1    1    1   7.16024841883E+04  7.16024914818E+04  7.16024773686E+04
 grad-res     0    2    2    2    0    1    1    1   7.64406442642E-01  7.05663405824E-01  7.68479090976E-02
(PID.TID 0000.0001)  ADM  ref_cost_function      =  7.16024841882947E+04
(PID.TID 0000.0001)  ADM  adjoint_gradient       =  7.64406442642212E-01
(PID.TID 0000.0001)  ADM  finite-diff_grad       =  7.05663405824453E-01
(PID.TID 0000.0001) ====== End of gradient-check number   2 (ierr=  0) =======
(PID.TID 0000.0001) ====== Starts gradient-check number   3 (=ichknum) =======
 ph-test icomp, ncvarcomp, ichknum            3      185786           3
 ph-grd _loc: bi, bj, icomptest, ichknum            1           1           2           3
 ph-grd -->hit<--            3           1           1           1
(PID.TID 0000.0001) grdchk pos: i,j,k=    3    1    1 ; bi,bj=   1   1 ; iobc=  1 ; rec=   1
(PID.TID 0000.0001) Start initial hydrostatic pressure computation
(PID.TID 0000.0001) Pressure is predetermined for buoyancyRelation OCEANIC
(PID.TID 0000.0001) 
(PID.TID 0000.0001) // =======================================================
(PID.TID 0000.0001) // Model current state
(PID.TID 0000.0001) // =======================================================
(PID.TID 0000.0001) 
(PID.TID 0000.0001) SOLVE_FOR_PRESSURE: putPmEinXvector =    F
 cg2d: Sum(rhs),rhsMax =   3.28986887568337E+00  6.80605257074535E+00
 cg2d: Sum(rhs),rhsMax =   6.18100704625391E+00  7.25298038498159E+00
 cg2d: Sum(rhs),rhsMax =   8.73999345687001E+00  6.92099930737469E+00
 cg2d: Sum(rhs),rhsMax =   1.11007228015594E+01  6.67443212073130E+00
 cg2d: Sum(rhs),rhsMax =   1.33292314757248E+01  6.42651121572525E+00
 cg2d: Sum(rhs),rhsMax =   1.52834620260726E+01  6.12698819367247E+00
 cg2d: Sum(rhs),rhsMax =   1.69401199764884E+01  5.76377387060177E+00
 cg2d: Sum(rhs),rhsMax =   1.83148702845348E+01  5.33864197083816E+00
(PID.TID 0000.0001) Did not write pickup because writePickupAtEnd = FALSE
(PID.TID 0000.0001) ph-cost call cost_theta0
(PID.TID 0000.0001) ph-cost call cost_salt0
(PID.TID 0000.0001) ph-cost call cost_theta
(PID.TID 0000.0001) ph-cost call cost_salt
(PID.TID 0000.0001) ph-cost gencost # 01
(PID.TID 0000.0001) ph-cost gencost # 02
(PID.TID 0000.0001) ph-cost gencost # 03
(PID.TID 0000.0001) ph-cost gencost # 04
(PID.TID 0000.0001) ph-cost gencost # 05
(PID.TID 0000.0001) ph-cost gencost # 06
(PID.TID 0000.0001) ph-cost gencost # 07
(PID.TID 0000.0001) ph-cost gencost # 08
(PID.TID 0000.0001) ph-cost gencost # 09
(PID.TID 0000.0001) ph-cost gencost # 10
(PID.TID 0000.0001) ph-cost gencost # 11
(PID.TID 0000.0001) ph-cost gencost # 12
(PID.TID 0000.0001) ph-cost gencost # 13
(PID.TID 0000.0001) ph-cost gencost # 14
(PID.TID 0000.0001) ph-cost gencost # 15
(PID.TID 0000.0001) ph-cost gencost # 16
(PID.TID 0000.0001) ph-cost gencost # 17
(PID.TID 0000.0001) ph-cost gencost # 18
(PID.TID 0000.0001) ph-cost gencost # 19
(PID.TID 0000.0001) ph-cost gencost # 20
 --> f_ice     = 0.000000000000000D+00
 --> f_smrarea = 0.000000000000000D+00
 --> f_smrarea = 0.000000000000000D+00
 --> f_smrarea = 0.000000000000000D+00
 --> f_temp    = 0.433747630108558D+05
 --> f_salt    = 0.282277348761462D+05
 --> f_temp0   = 0.999999955296517D-04
 --> f_salt0   = 0.000000000000000D+00
 --> f_temp0smoo = 0.000000000000000D+00
 --> f_salt0smoo = 0.000000000000000D+00
 --> f_etan0   = 0.000000000000000D+00
 --> f_uvel0   = 0.000000000000000D+00
 --> f_vvel0   = 0.000000000000000D+00
 --> f_sst     = 0.000000000000000D+00
 --> f_tmi     = 0.000000000000000D+00
 --> f_sss     = 0.000000000000000D+00
 --> f_bp      = 0.000000000000000D+00
 --> f_ies      = 0.000000000000000D+00
 --> f_ssh       = 0.000000000000000D+00
 --> f_tp        = 0.000000000000000D+00
 --> f_ers       = 0.000000000000000D+00
 --> f_gfo       = 0.000000000000000D+00
 --> f_tauu    = 0.000000000000000D+00
 --> f_tauum   = 0.000000000000000D+00
 --> f_tauusmoo = 0.000000000000000D+00
 --> f_tauv    = 0.000000000000000D+00
 --> f_tauvm   = 0.000000000000000D+00
 --> f_tauvsmoo = 0.000000000000000D+00
 --> f_hflux   = 0.000000000000000D+00
 --> f_hfluxmm = 0.000000000000000D+00
 --> f_hfluxsmoo = 0.000000000000000D+00
 --> f_sflux   = 0.000000000000000D+00
 --> f_sfluxmm = 0.000000000000000D+00
 --> f_sfluxsmoo = 0.000000000000000D+00
 --> f_uwind     = 0.000000000000000D+00
 --> f_vwind     = 0.000000000000000D+00
 --> f_atemp     = 0.000000000000000D+00
 --> f_aqh     = 0.000000000000000D+00
 --> f_precip  = 0.000000000000000D+00
 --> f_swflux  = 0.000000000000000D+00
 --> f_swdown  = 0.000000000000000D+00
 --> f_uwindm     = 0.000000000000000D+00
 --> f_vwindm     = 0.000000000000000D+00
 --> f_atempm     = 0.000000000000000D+00
 --> f_aqhm     = 0.000000000000000D+00
 --> f_precipm  = 0.000000000000000D+00
 --> f_swfluxm  = 0.000000000000000D+00
 --> f_swdownm  = 0.000000000000000D+00
 --> f_uwindsmoo     = 0.000000000000000D+00
 --> f_vwindsmoo     = 0.000000000000000D+00
 --> f_atempsmoo     = 0.000000000000000D+00
 --> f_aqhsmoo     = 0.000000000000000D+00
 --> f_precipsmoo  = 0.000000000000000D+00
 --> f_swfluxsmoo  = 0.000000000000000D+00
 --> f_swdownsmoo  = 0.000000000000000D+00
 --> f_atl     = 0.000000000000000D+00
 --> f_ctdt    = 0.000000000000000D+00
 --> f_ctds    = 0.000000000000000D+00
 --> f_ctdtclim= 0.000000000000000D+00
 --> f_ctdsclim= 0.000000000000000D+00
 --> f_xbt     = 0.000000000000000D+00
 --> f_argot   = 0.000000000000000D+00
 --> f_argos   = 0.000000000000000D+00
 --> f_drifter   = 0.000000000000000D+00
 --> f_tdrift  = 0.000000000000000D+00
 --> f_sdrift  = 0.000000000000000D+00
 --> f_wdrift  = 0.000000000000000D+00
 --> f_scatx   = 0.000000000000000D+00
 --> f_scaty   = 0.000000000000000D+00
 --> f_scatxm  = 0.000000000000000D+00
 --> f_scatym  = 0.000000000000000D+00
 --> f_obcsn   = 0.000000000000000D+00
 --> f_obcss   = 0.000000000000000D+00
 --> f_obcsw   = 0.000000000000000D+00
 --> f_obcse   = 0.000000000000000D+00
 --> f_ageos   = 0.000000000000000D+00
 --> f_curmtr  = 0.000000000000000D+00
 --> f_kapgm   = 0.000000000000000D+00
 --> f_kapredi   = 0.000000000000000D+00
 --> f_diffkr  = 0.000000000000000D+00
 --> f_eddytau = 0.000000000000000D+00
 --> f_bottomdrag = 0.000000000000000D+00
 --> f_hfluxmm2           = 0.000000000000000D+00
 --> f_sfluxmm2           = 0.000000000000000D+00
 --> f_transp             = 0.000000000000000D+00
 --> objf_hmean           = 0.000000000000000D+00
 --> fc               = 0.716024979870020D+05
 --> objf_test(bi,bj)   =  0.000000000000000D+00
 --> objf_tracer(bi,bj) =  0.000000000000000D+00
 --> objf_atl(bi,bj)    =  0.000000000000000D+00
 --> objf_test(bi,bj)   =  0.000000000000000D+00
 --> objf_tracer(bi,bj) =  0.000000000000000D+00
 --> objf_atl(bi,bj)    =  0.000000000000000D+00
 --> objf_test(bi,bj)   =  0.000000000000000D+00
 --> objf_tracer(bi,bj) =  0.000000000000000D+00
 --> objf_atl(bi,bj)    =  0.000000000000000D+00
 --> objf_test(bi,bj)   =  0.000000000000000D+00
 --> objf_tracer(bi,bj) =  0.000000000000000D+00
 --> objf_atl(bi,bj)    =  0.000000000000000D+00
 --> objf_test(bi,bj)   =  0.000000000000000D+00
 --> objf_tracer(bi,bj) =  0.000000000000000D+00
 --> objf_atl(bi,bj)    =  0.000000000000000D+00
 --> objf_test(bi,bj)   =  0.000000000000000D+00
 --> objf_tracer(bi,bj) =  0.000000000000000D+00
 --> objf_atl(bi,bj)    =  0.000000000000000D+00
 --> objf_test(bi,bj)   =  0.000000000000000D+00
 --> objf_tracer(bi,bj) =  0.000000000000000D+00
 --> objf_atl(bi,bj)    =  0.000000000000000D+00
 --> objf_test(bi,bj)   =  0.000000000000000D+00
 --> objf_tracer(bi,bj) =  0.000000000000000D+00
 --> objf_atl(bi,bj)    =  0.000000000000000D+00
 --> objf_test(bi,bj)   =  0.000000000000000D+00
 --> objf_tracer(bi,bj) =  0.000000000000000D+00
 --> objf_atl(bi,bj)    =  0.000000000000000D+00
 --> objf_test(bi,bj)   =  0.000000000000000D+00
 --> objf_tracer(bi,bj) =  0.000000000000000D+00
 --> objf_atl(bi,bj)    =  0.000000000000000D+00
 --> objf_test(bi,bj)   =  0.000000000000000D+00
 --> objf_tracer(bi,bj) =  0.000000000000000D+00
 --> objf_atl(bi,bj)    =  0.000000000000000D+00
 --> objf_test(bi,bj)   =  0.000000000000000D+00
 --> objf_tracer(bi,bj) =  0.000000000000000D+00
 --> objf_atl(bi,bj)    =  0.000000000000000D+00
 --> objf_test(bi,bj)   =  0.000000000000000D+00
 --> objf_tracer(bi,bj) =  0.000000000000000D+00
 --> objf_atl(bi,bj)    =  0.000000000000000D+00
 --> objf_test(bi,bj)   =  0.000000000000000D+00
 --> objf_tracer(bi,bj) =  0.000000000000000D+00
 --> objf_atl(bi,bj)    =  0.000000000000000D+00
 --> objf_test(bi,bj)   =  0.000000000000000D+00
 --> objf_tracer(bi,bj) =  0.000000000000000D+00
 --> objf_atl(bi,bj)    =  0.000000000000000D+00
 --> objf_test(bi,bj)   =  0.000000000000000D+00
 --> objf_tracer(bi,bj) =  0.000000000000000D+00
 --> objf_atl(bi,bj)    =  0.000000000000000D+00
 --> objf_test(bi,bj)   =  0.000000000000000D+00
 --> objf_tracer(bi,bj) =  0.000000000000000D+00
 --> objf_atl(bi,bj)    =  0.000000000000000D+00
 --> objf_test(bi,bj)   =  0.000000000000000D+00
 --> objf_tracer(bi,bj) =  0.000000000000000D+00
 --> objf_atl(bi,bj)    =  0.000000000000000D+00
 --> objf_test(bi,bj)   =  0.000000000000000D+00
 --> objf_tracer(bi,bj) =  0.000000000000000D+00
 --> objf_atl(bi,bj)    =  0.000000000000000D+00
 --> objf_test(bi,bj)   =  0.000000000000000D+00
 --> objf_tracer(bi,bj) =  0.000000000000000D+00
 --> objf_atl(bi,bj)    =  0.000000000000000D+00
 --> objf_test(bi,bj)   =  0.000000000000000D+00
 --> objf_tracer(bi,bj) =  0.000000000000000D+00
 --> objf_atl(bi,bj)    =  0.000000000000000D+00
 --> objf_test(bi,bj)   =  0.000000000000000D+00
 --> objf_tracer(bi,bj) =  0.000000000000000D+00
 --> objf_atl(bi,bj)    =  0.000000000000000D+00
 --> objf_test(bi,bj)   =  0.000000000000000D+00
 --> objf_tracer(bi,bj) =  0.000000000000000D+00
 --> objf_atl(bi,bj)    =  0.000000000000000D+00
 --> objf_test(bi,bj)   =  0.000000000000000D+00
 --> objf_tracer(bi,bj) =  0.000000000000000D+00
 --> objf_atl(bi,bj)    =  0.000000000000000D+00
  local fc =  0.716024979870020D+05
 global fc =  0.716024979870020D+05
(PID.TID 0000.0001) grdchk perturb(+)fc: fcpertplus  =  7.16024979870020E+04
(PID.TID 0000.0001) Start initial hydrostatic pressure computation
(PID.TID 0000.0001) Pressure is predetermined for buoyancyRelation OCEANIC
(PID.TID 0000.0001) 
(PID.TID 0000.0001) // =======================================================
(PID.TID 0000.0001) // Model current state
(PID.TID 0000.0001) // =======================================================
(PID.TID 0000.0001) 
(PID.TID 0000.0001) SOLVE_FOR_PRESSURE: putPmEinXvector =    F
 cg2d: Sum(rhs),rhsMax =   3.28986887568330E+00  6.80605256899685E+00
 cg2d: Sum(rhs),rhsMax =   6.18101019429285E+00  7.25298038178962E+00
 cg2d: Sum(rhs),rhsMax =   8.73999972329339E+00  6.92099930328777E+00
 cg2d: Sum(rhs),rhsMax =   1.11007320782177E+01  6.67443211613155E+00
 cg2d: Sum(rhs),rhsMax =   1.33292437791605E+01  6.42651121149383E+00
 cg2d: Sum(rhs),rhsMax =   1.52834771568221E+01  6.12698819095851E+00
 cg2d: Sum(rhs),rhsMax =   1.69401381808940E+01  5.76377387059645E+00
 cg2d: Sum(rhs),rhsMax =   1.83148917261481E+01  5.33864197501230E+00
(PID.TID 0000.0001) Did not write pickup because writePickupAtEnd = FALSE
(PID.TID 0000.0001) ph-cost call cost_theta0
(PID.TID 0000.0001) ph-cost call cost_salt0
(PID.TID 0000.0001) ph-cost call cost_theta
(PID.TID 0000.0001) ph-cost call cost_salt
(PID.TID 0000.0001) ph-cost gencost # 01
(PID.TID 0000.0001) ph-cost gencost # 02
(PID.TID 0000.0001) ph-cost gencost # 03
(PID.TID 0000.0001) ph-cost gencost # 04
(PID.TID 0000.0001) ph-cost gencost # 05
(PID.TID 0000.0001) ph-cost gencost # 06
(PID.TID 0000.0001) ph-cost gencost # 07
(PID.TID 0000.0001) ph-cost gencost # 08
(PID.TID 0000.0001) ph-cost gencost # 09
(PID.TID 0000.0001) ph-cost gencost # 10
(PID.TID 0000.0001) ph-cost gencost # 11
(PID.TID 0000.0001) ph-cost gencost # 12
(PID.TID 0000.0001) ph-cost gencost # 13
(PID.TID 0000.0001) ph-cost gencost # 14
(PID.TID 0000.0001) ph-cost gencost # 15
(PID.TID 0000.0001) ph-cost gencost # 16
(PID.TID 0000.0001) ph-cost gencost # 17
(PID.TID 0000.0001) ph-cost gencost # 18
(PID.TID 0000.0001) ph-cost gencost # 19
(PID.TID 0000.0001) ph-cost gencost # 20
 --> f_ice     = 0.000000000000000D+00
 --> f_smrarea = 0.000000000000000D+00
 --> f_smrarea = 0.000000000000000D+00
 --> f_smrarea = 0.000000000000000D+00
 --> f_temp    = 0.433747352928990D+05
 --> f_salt    = 0.282277354206891D+05
 --> f_temp0   = 0.999999955296517D-04
 --> f_salt0   = 0.000000000000000D+00
 --> f_temp0smoo = 0.000000000000000D+00
 --> f_salt0smoo = 0.000000000000000D+00
 --> f_etan0   = 0.000000000000000D+00
 --> f_uvel0   = 0.000000000000000D+00
 --> f_vvel0   = 0.000000000000000D+00
 --> f_sst     = 0.000000000000000D+00
 --> f_tmi     = 0.000000000000000D+00
 --> f_sss     = 0.000000000000000D+00
 --> f_bp      = 0.000000000000000D+00
 --> f_ies      = 0.000000000000000D+00
 --> f_ssh       = 0.000000000000000D+00
 --> f_tp        = 0.000000000000000D+00
 --> f_ers       = 0.000000000000000D+00
 --> f_gfo       = 0.000000000000000D+00
 --> f_tauu    = 0.000000000000000D+00
 --> f_tauum   = 0.000000000000000D+00
 --> f_tauusmoo = 0.000000000000000D+00
 --> f_tauv    = 0.000000000000000D+00
 --> f_tauvm   = 0.000000000000000D+00
 --> f_tauvsmoo = 0.000000000000000D+00
 --> f_hflux   = 0.000000000000000D+00
 --> f_hfluxmm = 0.000000000000000D+00
 --> f_hfluxsmoo = 0.000000000000000D+00
 --> f_sflux   = 0.000000000000000D+00
 --> f_sfluxmm = 0.000000000000000D+00
 --> f_sfluxsmoo = 0.000000000000000D+00
 --> f_uwind     = 0.000000000000000D+00
 --> f_vwind     = 0.000000000000000D+00
 --> f_atemp     = 0.000000000000000D+00
 --> f_aqh     = 0.000000000000000D+00
 --> f_precip  = 0.000000000000000D+00
 --> f_swflux  = 0.000000000000000D+00
 --> f_swdown  = 0.000000000000000D+00
 --> f_uwindm     = 0.000000000000000D+00
 --> f_vwindm     = 0.000000000000000D+00
 --> f_atempm     = 0.000000000000000D+00
 --> f_aqhm     = 0.000000000000000D+00
 --> f_precipm  = 0.000000000000000D+00
 --> f_swfluxm  = 0.000000000000000D+00
 --> f_swdownm  = 0.000000000000000D+00
 --> f_uwindsmoo     = 0.000000000000000D+00
 --> f_vwindsmoo     = 0.000000000000000D+00
 --> f_atempsmoo     = 0.000000000000000D+00
 --> f_aqhsmoo     = 0.000000000000000D+00
 --> f_precipsmoo  = 0.000000000000000D+00
 --> f_swfluxsmoo  = 0.000000000000000D+00
 --> f_swdownsmoo  = 0.000000000000000D+00
 --> f_atl     = 0.000000000000000D+00
 --> f_ctdt    = 0.000000000000000D+00
 --> f_ctds    = 0.000000000000000D+00
 --> f_ctdtclim= 0.000000000000000D+00
 --> f_ctdsclim= 0.000000000000000D+00
 --> f_xbt     = 0.000000000000000D+00
 --> f_argot   = 0.000000000000000D+00
 --> f_argos   = 0.000000000000000D+00
 --> f_drifter   = 0.000000000000000D+00
 --> f_tdrift  = 0.000000000000000D+00
 --> f_sdrift  = 0.000000000000000D+00
 --> f_wdrift  = 0.000000000000000D+00
 --> f_scatx   = 0.000000000000000D+00
 --> f_scaty   = 0.000000000000000D+00
 --> f_scatxm  = 0.000000000000000D+00
 --> f_scatym  = 0.000000000000000D+00
 --> f_obcsn   = 0.000000000000000D+00
 --> f_obcss   = 0.000000000000000D+00
 --> f_obcsw   = 0.000000000000000D+00
 --> f_obcse   = 0.000000000000000D+00
 --> f_ageos   = 0.000000000000000D+00
 --> f_curmtr  = 0.000000000000000D+00
 --> f_kapgm   = 0.000000000000000D+00
 --> f_kapredi   = 0.000000000000000D+00
 --> f_diffkr  = 0.000000000000000D+00
 --> f_eddytau = 0.000000000000000D+00
 --> f_bottomdrag = 0.000000000000000D+00
 --> f_hfluxmm2           = 0.000000000000000D+00
 --> f_sfluxmm2           = 0.000000000000000D+00
 --> f_transp             = 0.000000000000000D+00
 --> objf_hmean           = 0.000000000000000D+00
 --> fc               = 0.716024708135882D+05
 --> objf_test(bi,bj)   =  0.000000000000000D+00
 --> objf_tracer(bi,bj) =  0.000000000000000D+00
 --> objf_atl(bi,bj)    =  0.000000000000000D+00
 --> objf_test(bi,bj)   =  0.000000000000000D+00
 --> objf_tracer(bi,bj) =  0.000000000000000D+00
 --> objf_atl(bi,bj)    =  0.000000000000000D+00
 --> objf_test(bi,bj)   =  0.000000000000000D+00
 --> objf_tracer(bi,bj) =  0.000000000000000D+00
 --> objf_atl(bi,bj)    =  0.000000000000000D+00
 --> objf_test(bi,bj)   =  0.000000000000000D+00
 --> objf_tracer(bi,bj) =  0.000000000000000D+00
 --> objf_atl(bi,bj)    =  0.000000000000000D+00
 --> objf_test(bi,bj)   =  0.000000000000000D+00
 --> objf_tracer(bi,bj) =  0.000000000000000D+00
 --> objf_atl(bi,bj)    =  0.000000000000000D+00
 --> objf_test(bi,bj)   =  0.000000000000000D+00
 --> objf_tracer(bi,bj) =  0.000000000000000D+00
 --> objf_atl(bi,bj)    =  0.000000000000000D+00
 --> objf_test(bi,bj)   =  0.000000000000000D+00
 --> objf_tracer(bi,bj) =  0.000000000000000D+00
 --> objf_atl(bi,bj)    =  0.000000000000000D+00
 --> objf_test(bi,bj)   =  0.000000000000000D+00
 --> objf_tracer(bi,bj) =  0.000000000000000D+00
 --> objf_atl(bi,bj)    =  0.000000000000000D+00
 --> objf_test(bi,bj)   =  0.000000000000000D+00
 --> objf_tracer(bi,bj) =  0.000000000000000D+00
 --> objf_atl(bi,bj)    =  0.000000000000000D+00
 --> objf_test(bi,bj)   =  0.000000000000000D+00
 --> objf_tracer(bi,bj) =  0.000000000000000D+00
 --> objf_atl(bi,bj)    =  0.000000000000000D+00
 --> objf_test(bi,bj)   =  0.000000000000000D+00
 --> objf_tracer(bi,bj) =  0.000000000000000D+00
 --> objf_atl(bi,bj)    =  0.000000000000000D+00
 --> objf_test(bi,bj)   =  0.000000000000000D+00
 --> objf_tracer(bi,bj) =  0.000000000000000D+00
 --> objf_atl(bi,bj)    =  0.000000000000000D+00
 --> objf_test(bi,bj)   =  0.000000000000000D+00
 --> objf_tracer(bi,bj) =  0.000000000000000D+00
 --> objf_atl(bi,bj)    =  0.000000000000000D+00
 --> objf_test(bi,bj)   =  0.000000000000000D+00
 --> objf_tracer(bi,bj) =  0.000000000000000D+00
 --> objf_atl(bi,bj)    =  0.000000000000000D+00
 --> objf_test(bi,bj)   =  0.000000000000000D+00
 --> objf_tracer(bi,bj) =  0.000000000000000D+00
 --> objf_atl(bi,bj)    =  0.000000000000000D+00
 --> objf_test(bi,bj)   =  0.000000000000000D+00
 --> objf_tracer(bi,bj) =  0.000000000000000D+00
 --> objf_atl(bi,bj)    =  0.000000000000000D+00
 --> objf_test(bi,bj)   =  0.000000000000000D+00
 --> objf_tracer(bi,bj) =  0.000000000000000D+00
 --> objf_atl(bi,bj)    =  0.000000000000000D+00
 --> objf_test(bi,bj)   =  0.000000000000000D+00
 --> objf_tracer(bi,bj) =  0.000000000000000D+00
 --> objf_atl(bi,bj)    =  0.000000000000000D+00
 --> objf_test(bi,bj)   =  0.000000000000000D+00
 --> objf_tracer(bi,bj) =  0.000000000000000D+00
 --> objf_atl(bi,bj)    =  0.000000000000000D+00
 --> objf_test(bi,bj)   =  0.000000000000000D+00
 --> objf_tracer(bi,bj) =  0.000000000000000D+00
 --> objf_atl(bi,bj)    =  0.000000000000000D+00
 --> objf_test(bi,bj)   =  0.000000000000000D+00
 --> objf_tracer(bi,bj) =  0.000000000000000D+00
 --> objf_atl(bi,bj)    =  0.000000000000000D+00
 --> objf_test(bi,bj)   =  0.000000000000000D+00
 --> objf_tracer(bi,bj) =  0.000000000000000D+00
 --> objf_atl(bi,bj)    =  0.000000000000000D+00
 --> objf_test(bi,bj)   =  0.000000000000000D+00
 --> objf_tracer(bi,bj) =  0.000000000000000D+00
 --> objf_atl(bi,bj)    =  0.000000000000000D+00
 --> objf_test(bi,bj)   =  0.000000000000000D+00
 --> objf_tracer(bi,bj) =  0.000000000000000D+00
 --> objf_atl(bi,bj)    =  0.000000000000000D+00
  local fc =  0.716024708135882D+05
 global fc =  0.716024708135882D+05
(PID.TID 0000.0001) grdchk perturb(-)fc: fcpertminus =  7.16024708135882E+04
grad-res -------------------------------
 grad-res     0    3    3    1    1    1    1    1   7.16024841883E+04  7.16024979870E+04  7.16024708136E+04
 grad-res     0    3    3    3    0    1    1    1   1.38254094124E+00  1.35867069330E+00  1.72654908278E-02
(PID.TID 0000.0001)  ADM  ref_cost_function      =  7.16024841882947E+04
(PID.TID 0000.0001)  ADM  adjoint_gradient       =  1.38254094123840E+00
(PID.TID 0000.0001)  ADM  finite-diff_grad       =  1.35867069329834E+00
(PID.TID 0000.0001) ====== End of gradient-check number   3 (ierr=  0) =======
(PID.TID 0000.0001) ====== Starts gradient-check number   4 (=ichknum) =======
 ph-test icomp, ncvarcomp, ichknum            4      185786           4
 ph-grd _loc: bi, bj, icomptest, ichknum            1           1           3           4
 ph-grd -->hit<--            4           1           1           1
(PID.TID 0000.0001) grdchk pos: i,j,k=    4    1    1 ; bi,bj=   1   1 ; iobc=  1 ; rec=   1
(PID.TID 0000.0001) Start initial hydrostatic pressure computation
(PID.TID 0000.0001) Pressure is predetermined for buoyancyRelation OCEANIC
(PID.TID 0000.0001) 
(PID.TID 0000.0001) // =======================================================
(PID.TID 0000.0001) // Model current state
(PID.TID 0000.0001) // =======================================================
(PID.TID 0000.0001) 
(PID.TID 0000.0001) SOLVE_FOR_PRESSURE: putPmEinXvector =    F
 cg2d: Sum(rhs),rhsMax =   3.28986887568333E+00  6.80605257069410E+00
 cg2d: Sum(rhs),rhsMax =   6.18100713531917E+00  7.25298038588581E+00
 cg2d: Sum(rhs),rhsMax =   8.73999185261209E+00  6.92099930869314E+00
 cg2d: Sum(rhs),rhsMax =   1.11007201434941E+01  6.67443212197686E+00
 cg2d: Sum(rhs),rhsMax =   1.33292284146486E+01  6.42651121658041E+00
 cg2d: Sum(rhs),rhsMax =   1.52834583711245E+01  6.12698819397499E+00
 cg2d: Sum(rhs),rhsMax =   1.69401158641988E+01  5.76377387012645E+00
 cg2d: Sum(rhs),rhsMax =   1.83148657482434E+01  5.33864196931602E+00
(PID.TID 0000.0001) Did not write pickup because writePickupAtEnd = FALSE
(PID.TID 0000.0001) ph-cost call cost_theta0
(PID.TID 0000.0001) ph-cost call cost_salt0
(PID.TID 0000.0001) ph-cost call cost_theta
(PID.TID 0000.0001) ph-cost call cost_salt
(PID.TID 0000.0001) ph-cost gencost # 01
(PID.TID 0000.0001) ph-cost gencost # 02
(PID.TID 0000.0001) ph-cost gencost # 03
(PID.TID 0000.0001) ph-cost gencost # 04
(PID.TID 0000.0001) ph-cost gencost # 05
(PID.TID 0000.0001) ph-cost gencost # 06
(PID.TID 0000.0001) ph-cost gencost # 07
(PID.TID 0000.0001) ph-cost gencost # 08
(PID.TID 0000.0001) ph-cost gencost # 09
(PID.TID 0000.0001) ph-cost gencost # 10
(PID.TID 0000.0001) ph-cost gencost # 11
(PID.TID 0000.0001) ph-cost gencost # 12
(PID.TID 0000.0001) ph-cost gencost # 13
(PID.TID 0000.0001) ph-cost gencost # 14
(PID.TID 0000.0001) ph-cost gencost # 15
(PID.TID 0000.0001) ph-cost gencost # 16
(PID.TID 0000.0001) ph-cost gencost # 17
(PID.TID 0000.0001) ph-cost gencost # 18
(PID.TID 0000.0001) ph-cost gencost # 19
(PID.TID 0000.0001) ph-cost gencost # 20
 --> f_ice     = 0.000000000000000D+00
 --> f_smrarea = 0.000000000000000D+00
 --> f_smrarea = 0.000000000000000D+00
 --> f_smrarea = 0.000000000000000D+00
 --> f_temp    = 0.433747694822931D+05
 --> f_salt    = 0.282277313474119D+05
 --> f_temp0   = 0.999999955296517D-04
 --> f_salt0   = 0.000000000000000D+00
 --> f_temp0smoo = 0.000000000000000D+00
 --> f_salt0smoo = 0.000000000000000D+00
 --> f_etan0   = 0.000000000000000D+00
 --> f_uvel0   = 0.000000000000000D+00
 --> f_vvel0   = 0.000000000000000D+00
 --> f_sst     = 0.000000000000000D+00
 --> f_tmi     = 0.000000000000000D+00
 --> f_sss     = 0.000000000000000D+00
 --> f_bp      = 0.000000000000000D+00
 --> f_ies      = 0.000000000000000D+00
 --> f_ssh       = 0.000000000000000D+00
 --> f_tp        = 0.000000000000000D+00
 --> f_ers       = 0.000000000000000D+00
 --> f_gfo       = 0.000000000000000D+00
 --> f_tauu    = 0.000000000000000D+00
 --> f_tauum   = 0.000000000000000D+00
 --> f_tauusmoo = 0.000000000000000D+00
 --> f_tauv    = 0.000000000000000D+00
 --> f_tauvm   = 0.000000000000000D+00
 --> f_tauvsmoo = 0.000000000000000D+00
 --> f_hflux   = 0.000000000000000D+00
 --> f_hfluxmm = 0.000000000000000D+00
 --> f_hfluxsmoo = 0.000000000000000D+00
 --> f_sflux   = 0.000000000000000D+00
 --> f_sfluxmm = 0.000000000000000D+00
 --> f_sfluxsmoo = 0.000000000000000D+00
 --> f_uwind     = 0.000000000000000D+00
 --> f_vwind     = 0.000000000000000D+00
 --> f_atemp     = 0.000000000000000D+00
 --> f_aqh     = 0.000000000000000D+00
 --> f_precip  = 0.000000000000000D+00
 --> f_swflux  = 0.000000000000000D+00
 --> f_swdown  = 0.000000000000000D+00
 --> f_uwindm     = 0.000000000000000D+00
 --> f_vwindm     = 0.000000000000000D+00
 --> f_atempm     = 0.000000000000000D+00
 --> f_aqhm     = 0.000000000000000D+00
 --> f_precipm  = 0.000000000000000D+00
 --> f_swfluxm  = 0.000000000000000D+00
 --> f_swdownm  = 0.000000000000000D+00
 --> f_uwindsmoo     = 0.000000000000000D+00
 --> f_vwindsmoo     = 0.000000000000000D+00
 --> f_atempsmoo     = 0.000000000000000D+00
 --> f_aqhsmoo     = 0.000000000000000D+00
 --> f_precipsmoo  = 0.000000000000000D+00
 --> f_swfluxsmoo  = 0.000000000000000D+00
 --> f_swdownsmoo  = 0.000000000000000D+00
 --> f_atl     = 0.000000000000000D+00
 --> f_ctdt    = 0.000000000000000D+00
 --> f_ctds    = 0.000000000000000D+00
 --> f_ctdtclim= 0.000000000000000D+00
 --> f_ctdsclim= 0.000000000000000D+00
 --> f_xbt     = 0.000000000000000D+00
 --> f_argot   = 0.000000000000000D+00
 --> f_argos   = 0.000000000000000D+00
 --> f_drifter   = 0.000000000000000D+00
 --> f_tdrift  = 0.000000000000000D+00
 --> f_sdrift  = 0.000000000000000D+00
 --> f_wdrift  = 0.000000000000000D+00
 --> f_scatx   = 0.000000000000000D+00
 --> f_scaty   = 0.000000000000000D+00
 --> f_scatxm  = 0.000000000000000D+00
 --> f_scatym  = 0.000000000000000D+00
 --> f_obcsn   = 0.000000000000000D+00
 --> f_obcss   = 0.000000000000000D+00
 --> f_obcsw   = 0.000000000000000D+00
 --> f_obcse   = 0.000000000000000D+00
 --> f_ageos   = 0.000000000000000D+00
 --> f_curmtr  = 0.000000000000000D+00
 --> f_kapgm   = 0.000000000000000D+00
 --> f_kapredi   = 0.000000000000000D+00
 --> f_diffkr  = 0.000000000000000D+00
 --> f_eddytau = 0.000000000000000D+00
 --> f_bottomdrag = 0.000000000000000D+00
 --> f_hfluxmm2           = 0.000000000000000D+00
 --> f_sfluxmm2           = 0.000000000000000D+00
 --> f_transp             = 0.000000000000000D+00
 --> objf_hmean           = 0.000000000000000D+00
 --> fc               = 0.716025009297050D+05
 --> objf_test(bi,bj)   =  0.000000000000000D+00
 --> objf_tracer(bi,bj) =  0.000000000000000D+00
 --> objf_atl(bi,bj)    =  0.000000000000000D+00
 --> objf_test(bi,bj)   =  0.000000000000000D+00
 --> objf_tracer(bi,bj) =  0.000000000000000D+00
 --> objf_atl(bi,bj)    =  0.000000000000000D+00
 --> objf_test(bi,bj)   =  0.000000000000000D+00
 --> objf_tracer(bi,bj) =  0.000000000000000D+00
 --> objf_atl(bi,bj)    =  0.000000000000000D+00
 --> objf_test(bi,bj)   =  0.000000000000000D+00
 --> objf_tracer(bi,bj) =  0.000000000000000D+00
 --> objf_atl(bi,bj)    =  0.000000000000000D+00
 --> objf_test(bi,bj)   =  0.000000000000000D+00
 --> objf_tracer(bi,bj) =  0.000000000000000D+00
 --> objf_atl(bi,bj)    =  0.000000000000000D+00
 --> objf_test(bi,bj)   =  0.000000000000000D+00
 --> objf_tracer(bi,bj) =  0.000000000000000D+00
 --> objf_atl(bi,bj)    =  0.000000000000000D+00
 --> objf_test(bi,bj)   =  0.000000000000000D+00
 --> objf_tracer(bi,bj) =  0.000000000000000D+00
 --> objf_atl(bi,bj)    =  0.000000000000000D+00
 --> objf_test(bi,bj)   =  0.000000000000000D+00
 --> objf_tracer(bi,bj) =  0.000000000000000D+00
 --> objf_atl(bi,bj)    =  0.000000000000000D+00
 --> objf_test(bi,bj)   =  0.000000000000000D+00
 --> objf_tracer(bi,bj) =  0.000000000000000D+00
 --> objf_atl(bi,bj)    =  0.000000000000000D+00
 --> objf_test(bi,bj)   =  0.000000000000000D+00
 --> objf_tracer(bi,bj) =  0.000000000000000D+00
 --> objf_atl(bi,bj)    =  0.000000000000000D+00
 --> objf_test(bi,bj)   =  0.000000000000000D+00
 --> objf_tracer(bi,bj) =  0.000000000000000D+00
 --> objf_atl(bi,bj)    =  0.000000000000000D+00
 --> objf_test(bi,bj)   =  0.000000000000000D+00
 --> objf_tracer(bi,bj) =  0.000000000000000D+00
 --> objf_atl(bi,bj)    =  0.000000000000000D+00
 --> objf_test(bi,bj)   =  0.000000000000000D+00
 --> objf_tracer(bi,bj) =  0.000000000000000D+00
 --> objf_atl(bi,bj)    =  0.000000000000000D+00
 --> objf_test(bi,bj)   =  0.000000000000000D+00
 --> objf_tracer(bi,bj) =  0.000000000000000D+00
 --> objf_atl(bi,bj)    =  0.000000000000000D+00
 --> objf_test(bi,bj)   =  0.000000000000000D+00
 --> objf_tracer(bi,bj) =  0.000000000000000D+00
 --> objf_atl(bi,bj)    =  0.000000000000000D+00
 --> objf_test(bi,bj)   =  0.000000000000000D+00
 --> objf_tracer(bi,bj) =  0.000000000000000D+00
 --> objf_atl(bi,bj)    =  0.000000000000000D+00
 --> objf_test(bi,bj)   =  0.000000000000000D+00
 --> objf_tracer(bi,bj) =  0.000000000000000D+00
 --> objf_atl(bi,bj)    =  0.000000000000000D+00
 --> objf_test(bi,bj)   =  0.000000000000000D+00
 --> objf_tracer(bi,bj) =  0.000000000000000D+00
 --> objf_atl(bi,bj)    =  0.000000000000000D+00
 --> objf_test(bi,bj)   =  0.000000000000000D+00
 --> objf_tracer(bi,bj) =  0.000000000000000D+00
 --> objf_atl(bi,bj)    =  0.000000000000000D+00
 --> objf_test(bi,bj)   =  0.000000000000000D+00
 --> objf_tracer(bi,bj) =  0.000000000000000D+00
 --> objf_atl(bi,bj)    =  0.000000000000000D+00
 --> objf_test(bi,bj)   =  0.000000000000000D+00
 --> objf_tracer(bi,bj) =  0.000000000000000D+00
 --> objf_atl(bi,bj)    =  0.000000000000000D+00
 --> objf_test(bi,bj)   =  0.000000000000000D+00
 --> objf_tracer(bi,bj) =  0.000000000000000D+00
 --> objf_atl(bi,bj)    =  0.000000000000000D+00
 --> objf_test(bi,bj)   =  0.000000000000000D+00
 --> objf_tracer(bi,bj) =  0.000000000000000D+00
 --> objf_atl(bi,bj)    =  0.000000000000000D+00
 --> objf_test(bi,bj)   =  0.000000000000000D+00
 --> objf_tracer(bi,bj) =  0.000000000000000D+00
 --> objf_atl(bi,bj)    =  0.000000000000000D+00
  local fc =  0.716025009297050D+05
 global fc =  0.716025009297050D+05
(PID.TID 0000.0001) grdchk perturb(+)fc: fcpertplus  =  7.16025009297050E+04
(PID.TID 0000.0001) Start initial hydrostatic pressure computation
(PID.TID 0000.0001) Pressure is predetermined for buoyancyRelation OCEANIC
(PID.TID 0000.0001) 
(PID.TID 0000.0001) // =======================================================
(PID.TID 0000.0001) // Model current state
(PID.TID 0000.0001) // =======================================================
(PID.TID 0000.0001) 
(PID.TID 0000.0001) SOLVE_FOR_PRESSURE: putPmEinXvector =    F
 cg2d: Sum(rhs),rhsMax =   3.28986887568334E+00  6.80605256904808E+00
 cg2d: Sum(rhs),rhsMax =   6.18101010526965E+00  7.25298038188579E+00
 cg2d: Sum(rhs),rhsMax =   8.73999958709125E+00  6.92099930335105E+00
 cg2d: Sum(rhs),rhsMax =   1.11007319077104E+01  6.67443211618700E+00
 cg2d: Sum(rhs),rhsMax =   1.33292437812578E+01  6.42651121142595E+00
 cg2d: Sum(rhs),rhsMax =   1.52834774145472E+01  6.12698819074451E+00
 cg2d: Sum(rhs),rhsMax =   1.69401385692024E+01  5.76377387039580E+00
 cg2d: Sum(rhs),rhsMax =   1.83148922415458E+01  5.33864197509009E+00
(PID.TID 0000.0001) Did not write pickup because writePickupAtEnd = FALSE
(PID.TID 0000.0001) ph-cost call cost_theta0
(PID.TID 0000.0001) ph-cost call cost_salt0
(PID.TID 0000.0001) ph-cost call cost_theta
(PID.TID 0000.0001) ph-cost call cost_salt
(PID.TID 0000.0001) ph-cost gencost # 01
(PID.TID 0000.0001) ph-cost gencost # 02
(PID.TID 0000.0001) ph-cost gencost # 03
(PID.TID 0000.0001) ph-cost gencost # 04
(PID.TID 0000.0001) ph-cost gencost # 05
(PID.TID 0000.0001) ph-cost gencost # 06
(PID.TID 0000.0001) ph-cost gencost # 07
(PID.TID 0000.0001) ph-cost gencost # 08
(PID.TID 0000.0001) ph-cost gencost # 09
(PID.TID 0000.0001) ph-cost gencost # 10
(PID.TID 0000.0001) ph-cost gencost # 11
(PID.TID 0000.0001) ph-cost gencost # 12
(PID.TID 0000.0001) ph-cost gencost # 13
(PID.TID 0000.0001) ph-cost gencost # 14
(PID.TID 0000.0001) ph-cost gencost # 15
(PID.TID 0000.0001) ph-cost gencost # 16
(PID.TID 0000.0001) ph-cost gencost # 17
(PID.TID 0000.0001) ph-cost gencost # 18
(PID.TID 0000.0001) ph-cost gencost # 19
(PID.TID 0000.0001) ph-cost gencost # 20
 --> f_ice     = 0.000000000000000D+00
 --> f_smrarea = 0.000000000000000D+00
 --> f_smrarea = 0.000000000000000D+00
 --> f_smrarea = 0.000000000000000D+00
 --> f_temp    = 0.433747280820437D+05
 --> f_salt    = 0.282277357009281D+05
 --> f_temp0   = 0.999999955296517D-04
 --> f_salt0   = 0.000000000000000D+00
 --> f_temp0smoo = 0.000000000000000D+00
 --> f_salt0smoo = 0.000000000000000D+00
 --> f_etan0   = 0.000000000000000D+00
 --> f_uvel0   = 0.000000000000000D+00
 --> f_vvel0   = 0.000000000000000D+00
 --> f_sst     = 0.000000000000000D+00
 --> f_tmi     = 0.000000000000000D+00
 --> f_sss     = 0.000000000000000D+00
 --> f_bp      = 0.000000000000000D+00
 --> f_ies      = 0.000000000000000D+00
 --> f_ssh       = 0.000000000000000D+00
 --> f_tp        = 0.000000000000000D+00
 --> f_ers       = 0.000000000000000D+00
 --> f_gfo       = 0.000000000000000D+00
 --> f_tauu    = 0.000000000000000D+00
 --> f_tauum   = 0.000000000000000D+00
 --> f_tauusmoo = 0.000000000000000D+00
 --> f_tauv    = 0.000000000000000D+00
 --> f_tauvm   = 0.000000000000000D+00
 --> f_tauvsmoo = 0.000000000000000D+00
 --> f_hflux   = 0.000000000000000D+00
 --> f_hfluxmm = 0.000000000000000D+00
 --> f_hfluxsmoo = 0.000000000000000D+00
 --> f_sflux   = 0.000000000000000D+00
 --> f_sfluxmm = 0.000000000000000D+00
 --> f_sfluxsmoo = 0.000000000000000D+00
 --> f_uwind     = 0.000000000000000D+00
 --> f_vwind     = 0.000000000000000D+00
 --> f_atemp     = 0.000000000000000D+00
 --> f_aqh     = 0.000000000000000D+00
 --> f_precip  = 0.000000000000000D+00
 --> f_swflux  = 0.000000000000000D+00
 --> f_swdown  = 0.000000000000000D+00
 --> f_uwindm     = 0.000000000000000D+00
 --> f_vwindm     = 0.000000000000000D+00
 --> f_atempm     = 0.000000000000000D+00
 --> f_aqhm     = 0.000000000000000D+00
 --> f_precipm  = 0.000000000000000D+00
 --> f_swfluxm  = 0.000000000000000D+00
 --> f_swdownm  = 0.000000000000000D+00
 --> f_uwindsmoo     = 0.000000000000000D+00
 --> f_vwindsmoo     = 0.000000000000000D+00
 --> f_atempsmoo     = 0.000000000000000D+00
 --> f_aqhsmoo     = 0.000000000000000D+00
 --> f_precipsmoo  = 0.000000000000000D+00
 --> f_swfluxsmoo  = 0.000000000000000D+00
 --> f_swdownsmoo  = 0.000000000000000D+00
 --> f_atl     = 0.000000000000000D+00
 --> f_ctdt    = 0.000000000000000D+00
 --> f_ctds    = 0.000000000000000D+00
 --> f_ctdtclim= 0.000000000000000D+00
 --> f_ctdsclim= 0.000000000000000D+00
 --> f_xbt     = 0.000000000000000D+00
 --> f_argot   = 0.000000000000000D+00
 --> f_argos   = 0.000000000000000D+00
 --> f_drifter   = 0.000000000000000D+00
 --> f_tdrift  = 0.000000000000000D+00
 --> f_sdrift  = 0.000000000000000D+00
 --> f_wdrift  = 0.000000000000000D+00
 --> f_scatx   = 0.000000000000000D+00
 --> f_scaty   = 0.000000000000000D+00
 --> f_scatxm  = 0.000000000000000D+00
 --> f_scatym  = 0.000000000000000D+00
 --> f_obcsn   = 0.000000000000000D+00
 --> f_obcss   = 0.000000000000000D+00
 --> f_obcsw   = 0.000000000000000D+00
 --> f_obcse   = 0.000000000000000D+00
 --> f_ageos   = 0.000000000000000D+00
 --> f_curmtr  = 0.000000000000000D+00
 --> f_kapgm   = 0.000000000000000D+00
 --> f_kapredi   = 0.000000000000000D+00
 --> f_diffkr  = 0.000000000000000D+00
 --> f_eddytau = 0.000000000000000D+00
 --> f_bottomdrag = 0.000000000000000D+00
 --> f_hfluxmm2           = 0.000000000000000D+00
 --> f_sfluxmm2           = 0.000000000000000D+00
 --> f_transp             = 0.000000000000000D+00
 --> objf_hmean           = 0.000000000000000D+00
 --> fc               = 0.716024638829718D+05
 --> objf_test(bi,bj)   =  0.000000000000000D+00
 --> objf_tracer(bi,bj) =  0.000000000000000D+00
 --> objf_atl(bi,bj)    =  0.000000000000000D+00
 --> objf_test(bi,bj)   =  0.000000000000000D+00
 --> objf_tracer(bi,bj) =  0.000000000000000D+00
 --> objf_atl(bi,bj)    =  0.000000000000000D+00
 --> objf_test(bi,bj)   =  0.000000000000000D+00
 --> objf_tracer(bi,bj) =  0.000000000000000D+00
 --> objf_atl(bi,bj)    =  0.000000000000000D+00
 --> objf_test(bi,bj)   =  0.000000000000000D+00
 --> objf_tracer(bi,bj) =  0.000000000000000D+00
 --> objf_atl(bi,bj)    =  0.000000000000000D+00
 --> objf_test(bi,bj)   =  0.000000000000000D+00
 --> objf_tracer(bi,bj) =  0.000000000000000D+00
 --> objf_atl(bi,bj)    =  0.000000000000000D+00
 --> objf_test(bi,bj)   =  0.000000000000000D+00
 --> objf_tracer(bi,bj) =  0.000000000000000D+00
 --> objf_atl(bi,bj)    =  0.000000000000000D+00
 --> objf_test(bi,bj)   =  0.000000000000000D+00
 --> objf_tracer(bi,bj) =  0.000000000000000D+00
 --> objf_atl(bi,bj)    =  0.000000000000000D+00
 --> objf_test(bi,bj)   =  0.000000000000000D+00
 --> objf_tracer(bi,bj) =  0.000000000000000D+00
 --> objf_atl(bi,bj)    =  0.000000000000000D+00
 --> objf_test(bi,bj)   =  0.000000000000000D+00
 --> objf_tracer(bi,bj) =  0.000000000000000D+00
 --> objf_atl(bi,bj)    =  0.000000000000000D+00
 --> objf_test(bi,bj)   =  0.000000000000000D+00
 --> objf_tracer(bi,bj) =  0.000000000000000D+00
 --> objf_atl(bi,bj)    =  0.000000000000000D+00
 --> objf_test(bi,bj)   =  0.000000000000000D+00
 --> objf_tracer(bi,bj) =  0.000000000000000D+00
 --> objf_atl(bi,bj)    =  0.000000000000000D+00
 --> objf_test(bi,bj)   =  0.000000000000000D+00
 --> objf_tracer(bi,bj) =  0.000000000000000D+00
 --> objf_atl(bi,bj)    =  0.000000000000000D+00
 --> objf_test(bi,bj)   =  0.000000000000000D+00
 --> objf_tracer(bi,bj) =  0.000000000000000D+00
 --> objf_atl(bi,bj)    =  0.000000000000000D+00
 --> objf_test(bi,bj)   =  0.000000000000000D+00
 --> objf_tracer(bi,bj) =  0.000000000000000D+00
 --> objf_atl(bi,bj)    =  0.000000000000000D+00
 --> objf_test(bi,bj)   =  0.000000000000000D+00
 --> objf_tracer(bi,bj) =  0.000000000000000D+00
 --> objf_atl(bi,bj)    =  0.000000000000000D+00
 --> objf_test(bi,bj)   =  0.000000000000000D+00
 --> objf_tracer(bi,bj) =  0.000000000000000D+00
 --> objf_atl(bi,bj)    =  0.000000000000000D+00
 --> objf_test(bi,bj)   =  0.000000000000000D+00
 --> objf_tracer(bi,bj) =  0.000000000000000D+00
 --> objf_atl(bi,bj)    =  0.000000000000000D+00
 --> objf_test(bi,bj)   =  0.000000000000000D+00
 --> objf_tracer(bi,bj) =  0.000000000000000D+00
 --> objf_atl(bi,bj)    =  0.000000000000000D+00
 --> objf_test(bi,bj)   =  0.000000000000000D+00
 --> objf_tracer(bi,bj) =  0.000000000000000D+00
 --> objf_atl(bi,bj)    =  0.000000000000000D+00
 --> objf_test(bi,bj)   =  0.000000000000000D+00
 --> objf_tracer(bi,bj) =  0.000000000000000D+00
 --> objf_atl(bi,bj)    =  0.000000000000000D+00
 --> objf_test(bi,bj)   =  0.000000000000000D+00
 --> objf_tracer(bi,bj) =  0.000000000000000D+00
 --> objf_atl(bi,bj)    =  0.000000000000000D+00
 --> objf_test(bi,bj)   =  0.000000000000000D+00
 --> objf_tracer(bi,bj) =  0.000000000000000D+00
 --> objf_atl(bi,bj)    =  0.000000000000000D+00
 --> objf_test(bi,bj)   =  0.000000000000000D+00
 --> objf_tracer(bi,bj) =  0.000000000000000D+00
 --> objf_atl(bi,bj)    =  0.000000000000000D+00
 --> objf_test(bi,bj)   =  0.000000000000000D+00
 --> objf_tracer(bi,bj) =  0.000000000000000D+00
 --> objf_atl(bi,bj)    =  0.000000000000000D+00
  local fc =  0.716024638829718D+05
 global fc =  0.716024638829718D+05
(PID.TID 0000.0001) grdchk perturb(-)fc: fcpertminus =  7.16024638829718E+04
grad-res -------------------------------
 grad-res     0    4    4    1    1    1    1    1   7.16024841883E+04  7.16025009297E+04  7.16024638830E+04
 grad-res     0    4    4    4    0    1    1    1   2.05590844154E+00  1.85233665834E+00  9.90179227297E-02
(PID.TID 0000.0001)  ADM  ref_cost_function      =  7.16024841882947E+04
(PID.TID 0000.0001)  ADM  adjoint_gradient       =  2.05590844154358E+00
(PID.TID 0000.0001)  ADM  finite-diff_grad       =  1.85233665833948E+00
(PID.TID 0000.0001) ====== End of gradient-check number   4 (ierr=  0) =======
(PID.TID 0000.0001) 
(PID.TID 0000.0001) // =======================================================
(PID.TID 0000.0001) // Gradient check results  >>> START <<<
(PID.TID 0000.0001) // =======================================================
(PID.TID 0000.0001) 
(PID.TID 0000.0001)  EPS =   1.000000E-02
(PID.TID 0000.0001) 
(PID.TID 0000.0001) grdchk output h.p:  Id Itile Jtile LAYER   bi   bj   X(Id)           X(Id)+/-EPS
(PID.TID 0000.0001) grdchk output h.c:  Id  FC                   FC1                  FC2
(PID.TID 0000.0001) grdchk output h.g:  Id     FC1-FC2/(2*EPS)      ADJ GRAD(FC)         1-FDGRD/ADGRD
(PID.TID 0000.0001) 
(PID.TID 0000.0001) grdchk output (p):   1     1     1     1    1    1   0.000000000E+00 -1.000000000E-02
(PID.TID 0000.0001) grdchk output (c):   1  7.1602484188295E+04  7.1602486790321E+04  7.1602481897269E+04
(PID.TID 0000.0001) grdchk output (g):   1     2.4465256574331E-01  3.4108498692513E-01  2.8272256146819E-01
(PID.TID 0000.0001) 
(PID.TID 0000.0001) grdchk output (p):   2     2     1     1    1    1   0.000000000E+00 -1.000000000E-02
(PID.TID 0000.0001) grdchk output (c):   2  7.1602484188295E+04  7.1602491481837E+04  7.1602477368569E+04
(PID.TID 0000.0001) grdchk output (g):   2     7.0566340582445E-01  7.6440644264221E-01  7.6847909097562E-02
(PID.TID 0000.0001) 
(PID.TID 0000.0001) grdchk output (p):   3     3     1     1    1    1   0.000000000E+00 -1.000000000E-02
(PID.TID 0000.0001) grdchk output (c):   3  7.1602484188295E+04  7.1602497987002E+04  7.1602470813588E+04
(PID.TID 0000.0001) grdchk output (g):   3     1.3586706932983E+00  1.3825409412384E+00  1.7265490827842E-02
(PID.TID 0000.0001) 
(PID.TID 0000.0001) grdchk output (p):   4     4     1     1    1    1   0.000000000E+00 -1.000000000E-02
(PID.TID 0000.0001) grdchk output (c):   4  7.1602484188295E+04  7.1602500929705E+04  7.1602463882972E+04
(PID.TID 0000.0001) grdchk output (g):   4     1.8523366583395E+00  2.0559084415436E+00  9.9017922729699E-02
(PID.TID 0000.0001) 
(PID.TID 0000.0001) grdchk  summary  :  RMS of    4 ratios =  1.5487115135737E-01
(PID.TID 0000.0001) 
(PID.TID 0000.0001) // =======================================================
(PID.TID 0000.0001) // Gradient check results  >>> END <<<
(PID.TID 0000.0001) // =======================================================
(PID.TID 0000.0001) 
(PID.TID 0000.0001)   Seconds in section "ALL                    [THE_MODEL_MAIN]":
(PID.TID 0000.0001)           User time:   5012.5400000000000
(PID.TID 0000.0001)         System time:   3.8200000000000003
(PID.TID 0000.0001)     Wall clock time:   5030.5728039741516
(PID.TID 0000.0001)          No. starts:           1
(PID.TID 0000.0001)           No. stops:           1
(PID.TID 0000.0001)   Seconds in section "INITIALISE_FIXED       [THE_MODEL_MAIN]":
(PID.TID 0000.0001)           User time:   2.1800000000000002
(PID.TID 0000.0001)         System time:  0.31000000000000000
(PID.TID 0000.0001)     Wall clock time:   2.7290940284729004
(PID.TID 0000.0001)          No. starts:           1
(PID.TID 0000.0001)           No. stops:           1
(PID.TID 0000.0001)   Seconds in section "ADTHE_MAIN_LOOP          [ADJOINT RUN]":
(PID.TID 0000.0001)           User time:   4251.0299999999997
(PID.TID 0000.0001)         System time:   3.1800000000000002
(PID.TID 0000.0001)     Wall clock time:   4266.3764328956604
(PID.TID 0000.0001)          No. starts:           1
(PID.TID 0000.0001)           No. stops:           1
(PID.TID 0000.0001)   Seconds in section "UPDATE_R_STAR       [FORWARD_STEP]":
(PID.TID 0000.0001)           User time:   7.8900000000039654
(PID.TID 0000.0001)         System time:  1.00000000000002309E-002
(PID.TID 0000.0001)     Wall clock time:   7.9750835895538330
(PID.TID 0000.0001)          No. starts:         160
(PID.TID 0000.0001)           No. stops:         160
(PID.TID 0000.0001)   Seconds in section "DO_STATEVARS_DIAGS  [FORWARD_STEP]":
(PID.TID 0000.0001)           User time:  0.28999999999999204
(PID.TID 0000.0001)         System time:  1.00000000000000089E-002
(PID.TID 0000.0001)     Wall clock time:  0.28907322883605957
(PID.TID 0000.0001)          No. starts:          24
(PID.TID 0000.0001)           No. stops:          24
(PID.TID 0000.0001)   Seconds in section "LOAD_FIELDS_DRIVER  [FORWARD_STEP]":
(PID.TID 0000.0001)           User time:   10.909999999998035
(PID.TID 0000.0001)         System time:  5.99999999999996092E-002
(PID.TID 0000.0001)     Wall clock time:   11.313863754272461
(PID.TID 0000.0001)          No. starts:          80
(PID.TID 0000.0001)           No. stops:          80
(PID.TID 0000.0001)   Seconds in section "EXF_GETFORCING     [LOAD_FLDS_DRIVER]":
(PID.TID 0000.0001)           User time:   11.989999999997963
(PID.TID 0000.0001)         System time:  6.99999999999998401E-002
(PID.TID 0000.0001)     Wall clock time:   12.392269611358643
(PID.TID 0000.0001)          No. starts:          88
(PID.TID 0000.0001)           No. stops:          88
(PID.TID 0000.0001)   Seconds in section "I/O (WRITE)        [ADJOINT LOOP]":
(PID.TID 0000.0001)           User time:  0.48999999999887223
(PID.TID 0000.0001)         System time:  9.99999999999978684E-003
(PID.TID 0000.0001)     Wall clock time:  0.51195335388183594
(PID.TID 0000.0001)          No. starts:         329
(PID.TID 0000.0001)           No. stops:         329
(PID.TID 0000.0001)   Seconds in section "DO_ATMOSPHERIC_PHYS [FORWARD_STEP]":
(PID.TID 0000.0001)           User time:  9.99999999930878403E-003
(PID.TID 0000.0001)         System time:   0.0000000000000000
(PID.TID 0000.0001)     Wall clock time:  7.21216201782226563E-004
(PID.TID 0000.0001)          No. starts:          80
(PID.TID 0000.0001)           No. stops:          80
(PID.TID 0000.0001)   Seconds in section "DO_OCEANIC_PHYS     [FORWARD_STEP]":
(PID.TID 0000.0001)           User time:   102.43000000000211
(PID.TID 0000.0001)         System time:  6.99999999999998401E-002
(PID.TID 0000.0001)     Wall clock time:   102.80010747909546
(PID.TID 0000.0001)          No. starts:          80
(PID.TID 0000.0001)           No. stops:          80
(PID.TID 0000.0001)   Seconds in section "SEAICE_MODEL    [DO_OCEANIC_PHYS]":
(PID.TID 0000.0001)           User time:   8.1900000000032378
(PID.TID 0000.0001)         System time:   0.0000000000000000
(PID.TID 0000.0001)     Wall clock time:   8.2729978561401367
(PID.TID 0000.0001)          No. starts:          88
(PID.TID 0000.0001)           No. stops:          88
(PID.TID 0000.0001)   Seconds in section "SEAICE_DYNSOLVER   [SEAICE_MODEL]":
(PID.TID 0000.0001)           User time:   5.8400000000065120
(PID.TID 0000.0001)         System time:   0.0000000000000000
(PID.TID 0000.0001)     Wall clock time:   5.9162123203277588
(PID.TID 0000.0001)          No. starts:          88
(PID.TID 0000.0001)           No. stops:          88
(PID.TID 0000.0001)   Seconds in section "GGL90_CALC [DO_OCEANIC_PHYS]":
(PID.TID 0000.0001)           User time:   31.329999999996289
(PID.TID 0000.0001)         System time:  9.99999999999978684E-003
(PID.TID 0000.0001)     Wall clock time:   31.650251626968384
(PID.TID 0000.0001)          No. starts:        2112
(PID.TID 0000.0001)           No. stops:        2112
(PID.TID 0000.0001)   Seconds in section "DYNAMICS            [FORWARD_STEP]":
(PID.TID 0000.0001)           User time:   98.209999999997308
(PID.TID 0000.0001)         System time:  6.99999999999998401E-002
(PID.TID 0000.0001)     Wall clock time:   98.439290761947632
(PID.TID 0000.0001)          No. starts:          80
(PID.TID 0000.0001)           No. stops:          80
(PID.TID 0000.0001)   Seconds in section "SOLVE_FOR_PRESSURE  [FORWARD_STEP]":
(PID.TID 0000.0001)           User time:   5.8499999999958163
(PID.TID 0000.0001)         System time:   0.0000000000000000
(PID.TID 0000.0001)     Wall clock time:   5.8962554931640625
(PID.TID 0000.0001)          No. starts:          80
(PID.TID 0000.0001)           No. stops:          80
(PID.TID 0000.0001)   Seconds in section "MOM_CORRECTION_STEP [FORWARD_STEP]":
(PID.TID 0000.0001)           User time:   2.0000000000054570
(PID.TID 0000.0001)         System time:  1.00000000000002309E-002
(PID.TID 0000.0001)     Wall clock time:   1.9157762527465820
(PID.TID 0000.0001)          No. starts:          80
(PID.TID 0000.0001)           No. stops:          80
(PID.TID 0000.0001)   Seconds in section "INTEGR_CONTINUITY   [FORWARD_STEP]":
(PID.TID 0000.0001)           User time:   3.5899999999983265
(PID.TID 0000.0001)         System time:  9.99999999999978684E-003
(PID.TID 0000.0001)     Wall clock time:   3.6808316707611084
(PID.TID 0000.0001)          No. starts:          80
(PID.TID 0000.0001)           No. stops:          80
(PID.TID 0000.0001)   Seconds in section "CALC_R_STAR         [FORWARD_STEP]":
(PID.TID 0000.0001)           User time:  0.40999999999985448
(PID.TID 0000.0001)         System time:   0.0000000000000000
(PID.TID 0000.0001)     Wall clock time:  0.34461522102355957
(PID.TID 0000.0001)          No. starts:          80
(PID.TID 0000.0001)           No. stops:          80
(PID.TID 0000.0001)   Seconds in section "BLOCKING_EXCHANGES  [FORWARD_STEP]":
(PID.TID 0000.0001)           User time:   9.9500000000007276
(PID.TID 0000.0001)         System time:   0.0000000000000000
(PID.TID 0000.0001)     Wall clock time:   10.055494308471680
(PID.TID 0000.0001)          No. starts:         160
(PID.TID 0000.0001)           No. stops:         160
(PID.TID 0000.0001)   Seconds in section "THERMODYNAMICS      [FORWARD_STEP]":
(PID.TID 0000.0001)           User time:   140.05000000000018
(PID.TID 0000.0001)         System time:  8.00000000000005151E-002
(PID.TID 0000.0001)     Wall clock time:   140.40299201011658
(PID.TID 0000.0001)          No. starts:          80
(PID.TID 0000.0001)           No. stops:          80
(PID.TID 0000.0001)   Seconds in section "TRC_CORRECTION_STEP [FORWARD_STEP]":
(PID.TID 0000.0001)           User time:   1.0499999999992724
(PID.TID 0000.0001)         System time:   0.0000000000000000
(PID.TID 0000.0001)     Wall clock time:   1.0685746669769287
(PID.TID 0000.0001)          No. starts:          80
(PID.TID 0000.0001)           No. stops:          80
(PID.TID 0000.0001)   Seconds in section "DO_STATEVARS_TAVE   [FORWARD_STEP]":
(PID.TID 0000.0001)           User time:   0.0000000000000000
(PID.TID 0000.0001)         System time:   0.0000000000000000
(PID.TID 0000.0001)     Wall clock time:  7.59124755859375000E-004
(PID.TID 0000.0001)          No. starts:          80
(PID.TID 0000.0001)           No. stops:          80
(PID.TID 0000.0001)   Seconds in section "MONITOR             [FORWARD_STEP]":
(PID.TID 0000.0001)           User time:  0.93000000000029104
(PID.TID 0000.0001)         System time:   0.0000000000000000
(PID.TID 0000.0001)     Wall clock time:  0.91942882537841797
(PID.TID 0000.0001)          No. starts:          80
(PID.TID 0000.0001)           No. stops:          80
(PID.TID 0000.0001)   Seconds in section "COST_TILE           [FORWARD_STEP]":
(PID.TID 0000.0001)           User time:   0.0000000000000000
(PID.TID 0000.0001)         System time:   0.0000000000000000
(PID.TID 0000.0001)     Wall clock time:  7.38620758056640625E-004
(PID.TID 0000.0001)          No. starts:          80
(PID.TID 0000.0001)           No. stops:          80
(PID.TID 0000.0001)   Seconds in section "DO_THE_MODEL_IO     [FORWARD_STEP]":
(PID.TID 0000.0001)           User time:  0.59000000000014552
(PID.TID 0000.0001)         System time:  2.00000000000000178E-002
(PID.TID 0000.0001)     Wall clock time:   2.7342343330383301
(PID.TID 0000.0001)          No. starts:          80
(PID.TID 0000.0001)           No. stops:          80
(PID.TID 0000.0001)   Seconds in section "DO_WRITE_PICKUP     [FORWARD_STEP]":
(PID.TID 0000.0001)           User time:  0.15999999999985448
(PID.TID 0000.0001)         System time:  2.00000000000000178E-002
(PID.TID 0000.0001)     Wall clock time:  0.18136477470397949
(PID.TID 0000.0001)          No. starts:          80
(PID.TID 0000.0001)           No. stops:          80
(PID.TID 0000.0001)   Seconds in section "COST_FORCING       [ECCO SPIN-DOWN]":
(PID.TID 0000.0001)           User time:  7.00000000006184564E-002
(PID.TID 0000.0001)         System time:   0.0000000000000000
(PID.TID 0000.0001)     Wall clock time:  6.32300376892089844E-002
(PID.TID 0000.0001)          No. starts:           9
(PID.TID 0000.0001)           No. stops:           9
(PID.TID 0000.0001)   Seconds in section "COST_HYD           [ECCO SPIN-DOWN]":
(PID.TID 0000.0001)           User time:   1.6299999999991996
(PID.TID 0000.0001)         System time:  6.00000000000009415E-002
(PID.TID 0000.0001)     Wall clock time:   1.6608583927154541
(PID.TID 0000.0001)          No. starts:           9
(PID.TID 0000.0001)           No. stops:           9
(PID.TID 0000.0001)   Seconds in section "SEAICE_COST_DRIVER [ECCO SPIN-DOWN]":
(PID.TID 0000.0001)           User time:   0.0000000000000000
(PID.TID 0000.0001)         System time:   0.0000000000000000
(PID.TID 0000.0001)     Wall clock time:  8.13007354736328125E-005
(PID.TID 0000.0001)          No. starts:           9
(PID.TID 0000.0001)           No. stops:           9
(PID.TID 0000.0001)   Seconds in section "COST_INTERNAL_PARAMS  [ECCO SPIN-DOWN]":
(PID.TID 0000.0001)           User time:  0.54000000000087311
(PID.TID 0000.0001)         System time:   0.0000000000000000
(PID.TID 0000.0001)     Wall clock time:  0.54304122924804688
(PID.TID 0000.0001)          No. starts:           9
(PID.TID 0000.0001)           No. stops:           9
(PID.TID 0000.0001)   Seconds in section "COST_KAPGM      [ECCO SPIN-DOWN]":
(PID.TID 0000.0001)           User time:  0.17000000000098225
(PID.TID 0000.0001)         System time:   0.0000000000000000
(PID.TID 0000.0001)     Wall clock time:  0.17660450935363770
(PID.TID 0000.0001)          No. starts:           9
(PID.TID 0000.0001)           No. stops:           9
(PID.TID 0000.0001)   Seconds in section "COST_KAPREDI      [ECCO SPIN-DOWN]":
(PID.TID 0000.0001)           User time:  0.16000000000167347
(PID.TID 0000.0001)         System time:   0.0000000000000000
(PID.TID 0000.0001)     Wall clock time:  0.17444920539855957
(PID.TID 0000.0001)          No. starts:           9
(PID.TID 0000.0001)           No. stops:           9
(PID.TID 0000.0001)   Seconds in section "COST_DIFFKR      [ECCO SPIN-DOWN]":
(PID.TID 0000.0001)           User time:  0.20999999999912689
(PID.TID 0000.0001)         System time:   0.0000000000000000
(PID.TID 0000.0001)     Wall clock time:  0.19161581993103027
(PID.TID 0000.0001)          No. starts:           9
(PID.TID 0000.0001)           No. stops:           9
(PID.TID 0000.0001)   Seconds in section "COST_GENCOST_ALL    [ECCO SPIN-DOWN]":
(PID.TID 0000.0001)           User time:   1.3000000000010914
(PID.TID 0000.0001)         System time:   0.0000000000000000
(PID.TID 0000.0001)     Wall clock time:   1.3266477584838867
(PID.TID 0000.0001)          No. starts:           9
(PID.TID 0000.0001)           No. stops:           9
(PID.TID 0000.0001)   Seconds in section "COST_USERCOST_ALL    [ECCO SPIN-DOWN]":
(PID.TID 0000.0001)           User time:   0.0000000000000000
(PID.TID 0000.0001)         System time:   0.0000000000000000
(PID.TID 0000.0001)     Wall clock time:  8.39233398437500000E-005
(PID.TID 0000.0001)          No. starts:           9
(PID.TID 0000.0001)           No. stops:           9
(PID.TID 0000.0001)   Seconds in section "CTRL_PACK           [THE_MODEL_MAIN]":
(PID.TID 0000.0001)           User time:  0.39999999999963620
(PID.TID 0000.0001)         System time:  2.00000000000000178E-002
(PID.TID 0000.0001)     Wall clock time:  0.42113113403320313
(PID.TID 0000.0001)          No. starts:           1
(PID.TID 0000.0001)           No. stops:           1
(PID.TID 0000.0001)   Seconds in section "CTRL_PACK     [THE_MODEL_MAIN]":
(PID.TID 0000.0001)           User time:  0.40000000000054570
(PID.TID 0000.0001)         System time:  9.99999999999978684E-003
(PID.TID 0000.0001)     Wall clock time:  0.41114997863769531
(PID.TID 0000.0001)          No. starts:           1
(PID.TID 0000.0001)           No. stops:           1
(PID.TID 0000.0001)   Seconds in section "GRDCHK_MAIN         [THE_MODEL_MAIN]":
(PID.TID 0000.0001)           User time:   758.52999999999975
(PID.TID 0000.0001)         System time:  0.30000000000000027
(PID.TID 0000.0001)     Wall clock time:   760.63489794731140
(PID.TID 0000.0001)          No. starts:           1
(PID.TID 0000.0001)           No. stops:           1
(PID.TID 0000.0001)   Seconds in section "INITIALISE_VARIA    [THE_MAIN_LOOP]":
(PID.TID 0000.0001)           User time:   450.64000000000033
(PID.TID 0000.0001)         System time:  0.16999999999999993
(PID.TID 0000.0001)     Wall clock time:   451.89436650276184
(PID.TID 0000.0001)          No. starts:           8
(PID.TID 0000.0001)           No. stops:           8
(PID.TID 0000.0001)   Seconds in section "MAIN LOOP           [THE_MAIN_LOOP]":
(PID.TID 0000.0001)           User time:   307.31000000000040
(PID.TID 0000.0001)         System time:  0.11000000000000032
(PID.TID 0000.0001)     Wall clock time:   308.13940453529358
(PID.TID 0000.0001)          No. starts:           8
(PID.TID 0000.0001)           No. stops:           8
(PID.TID 0000.0001)   Seconds in section "COST_AVERAGESFIELDS [THE_MAIN_LOOP]":
(PID.TID 0000.0001)           User time:   1.0500000000010914
(PID.TID 0000.0001)         System time:  9.99999999999978684E-003
(PID.TID 0000.0001)     Wall clock time:   1.0438637733459473
(PID.TID 0000.0001)          No. starts:          72
(PID.TID 0000.0001)           No. stops:          72
(PID.TID 0000.0001)   Seconds in section "PROFILES_INLOOP    [FORWARD_STEP]":
(PID.TID 0000.0001)           User time:  9.99999999930878403E-003
(PID.TID 0000.0001)         System time:   0.0000000000000000
(PID.TID 0000.0001)     Wall clock time:  3.55100631713867188E-003
(PID.TID 0000.0001)          No. starts:          64
(PID.TID 0000.0001)           No. stops:          64
(PID.TID 0000.0001)   Seconds in section "FORWARD_STEP        [THE_MAIN_LOOP]":
(PID.TID 0000.0001)           User time:   302.42999999999938
(PID.TID 0000.0001)         System time:  4.99999999999998224E-002
(PID.TID 0000.0001)     Wall clock time:   303.21518421173096
(PID.TID 0000.0001)          No. starts:          64
(PID.TID 0000.0001)           No. stops:          64
(PID.TID 0000.0001)   Seconds in section "PROFILES_INLOOP    [THE_MAIN_LOOP]":
(PID.TID 0000.0001)           User time:   0.0000000000000000
(PID.TID 0000.0001)         System time:   0.0000000000000000
(PID.TID 0000.0001)     Wall clock time:  4.41551208496093750E-004
(PID.TID 0000.0001)          No. starts:           8
(PID.TID 0000.0001)           No. stops:           8
(PID.TID 0000.0001)   Seconds in section "ECCO_COST_DRIVER   [THE_MAIN_LOOP]":
(PID.TID 0000.0001)           User time:   3.1400000000012369
(PID.TID 0000.0001)         System time:  4.00000000000009237E-002
(PID.TID 0000.0001)     Wall clock time:   3.1776702404022217
(PID.TID 0000.0001)          No. starts:           8
(PID.TID 0000.0001)           No. stops:           8
(PID.TID 0000.0001)   Seconds in section "COST_FINAL         [ADJOINT SPIN-DOWN]":
(PID.TID 0000.0001)           User time:   0.0000000000000000
(PID.TID 0000.0001)         System time:  9.99999999999978684E-003
(PID.TID 0000.0001)     Wall clock time:  8.46147537231445313E-003
(PID.TID 0000.0001)          No. starts:           8
(PID.TID 0000.0001)           No. stops:           8
(PID.TID 0000.0001) // ======================================================
(PID.TID 0000.0001) // Tile <-> Tile communication statistics
(PID.TID 0000.0001) // ======================================================
(PID.TID 0000.0001) // o Tile number: 000001
(PID.TID 0000.0001) //         No. X exchanges =              0
(PID.TID 0000.0001) //            Max. X spins =              0
(PID.TID 0000.0001) //            Min. X spins =     1000000000
(PID.TID 0000.0001) //          Total. X spins =              0
(PID.TID 0000.0001) //            Avg. X spins =       0.00E+00
(PID.TID 0000.0001) //         No. Y exchanges =              0
(PID.TID 0000.0001) //            Max. Y spins =              0
(PID.TID 0000.0001) //            Min. Y spins =     1000000000
(PID.TID 0000.0001) //          Total. Y spins =              0
(PID.TID 0000.0001) //            Avg. Y spins =       0.00E+00
(PID.TID 0000.0001) // o Tile number: 000002
(PID.TID 0000.0001) //         No. X exchanges =              0
(PID.TID 0000.0001) //            Max. X spins =              0
(PID.TID 0000.0001) //            Min. X spins =     1000000000
(PID.TID 0000.0001) //          Total. X spins =              0
(PID.TID 0000.0001) //            Avg. X spins =       0.00E+00
(PID.TID 0000.0001) //         No. Y exchanges =              0
(PID.TID 0000.0001) //            Max. Y spins =              0
(PID.TID 0000.0001) //            Min. Y spins =     1000000000
(PID.TID 0000.0001) //          Total. Y spins =              0
(PID.TID 0000.0001) //            Avg. Y spins =       0.00E+00
(PID.TID 0000.0001) // o Tile number: 000003
(PID.TID 0000.0001) //         No. X exchanges =              0
(PID.TID 0000.0001) //            Max. X spins =              0
(PID.TID 0000.0001) //            Min. X spins =     1000000000
(PID.TID 0000.0001) //          Total. X spins =              0
(PID.TID 0000.0001) //            Avg. X spins =       0.00E+00
(PID.TID 0000.0001) //         No. Y exchanges =              0
(PID.TID 0000.0001) //            Max. Y spins =              0
(PID.TID 0000.0001) //            Min. Y spins =     1000000000
(PID.TID 0000.0001) //          Total. Y spins =              0
(PID.TID 0000.0001) //            Avg. Y spins =       0.00E+00
(PID.TID 0000.0001) // o Tile number: 000004
(PID.TID 0000.0001) //         No. X exchanges =              0
(PID.TID 0000.0001) //            Max. X spins =              0
(PID.TID 0000.0001) //            Min. X spins =     1000000000
(PID.TID 0000.0001) //          Total. X spins =              0
(PID.TID 0000.0001) //            Avg. X spins =       0.00E+00
(PID.TID 0000.0001) //         No. Y exchanges =              0
(PID.TID 0000.0001) //            Max. Y spins =              0
(PID.TID 0000.0001) //            Min. Y spins =     1000000000
(PID.TID 0000.0001) //          Total. Y spins =              0
(PID.TID 0000.0001) //            Avg. Y spins =       0.00E+00
(PID.TID 0000.0001) // o Tile number: 000005
(PID.TID 0000.0001) //         No. X exchanges =              0
(PID.TID 0000.0001) //            Max. X spins =              0
(PID.TID 0000.0001) //            Min. X spins =     1000000000
(PID.TID 0000.0001) //          Total. X spins =              0
(PID.TID 0000.0001) //            Avg. X spins =       0.00E+00
(PID.TID 0000.0001) //         No. Y exchanges =              0
(PID.TID 0000.0001) //            Max. Y spins =              0
(PID.TID 0000.0001) //            Min. Y spins =     1000000000
(PID.TID 0000.0001) //          Total. Y spins =              0
(PID.TID 0000.0001) //            Avg. Y spins =       0.00E+00
(PID.TID 0000.0001) // o Tile number: 000006
(PID.TID 0000.0001) //         No. X exchanges =              0
(PID.TID 0000.0001) //            Max. X spins =              0
(PID.TID 0000.0001) //            Min. X spins =     1000000000
(PID.TID 0000.0001) //          Total. X spins =              0
(PID.TID 0000.0001) //            Avg. X spins =       0.00E+00
(PID.TID 0000.0001) //         No. Y exchanges =              0
(PID.TID 0000.0001) //            Max. Y spins =              0
(PID.TID 0000.0001) //            Min. Y spins =     1000000000
(PID.TID 0000.0001) //          Total. Y spins =              0
(PID.TID 0000.0001) //            Avg. Y spins =       0.00E+00
(PID.TID 0000.0001) // o Tile number: 000007
(PID.TID 0000.0001) //         No. X exchanges =              0
(PID.TID 0000.0001) //            Max. X spins =              0
(PID.TID 0000.0001) //            Min. X spins =     1000000000
(PID.TID 0000.0001) //          Total. X spins =              0
(PID.TID 0000.0001) //            Avg. X spins =       0.00E+00
(PID.TID 0000.0001) //         No. Y exchanges =              0
(PID.TID 0000.0001) //            Max. Y spins =              0
(PID.TID 0000.0001) //            Min. Y spins =     1000000000
(PID.TID 0000.0001) //          Total. Y spins =              0
(PID.TID 0000.0001) //            Avg. Y spins =       0.00E+00
(PID.TID 0000.0001) // o Tile number: 000008
(PID.TID 0000.0001) //         No. X exchanges =              0
(PID.TID 0000.0001) //            Max. X spins =              0
(PID.TID 0000.0001) //            Min. X spins =     1000000000
(PID.TID 0000.0001) //          Total. X spins =              0
(PID.TID 0000.0001) //            Avg. X spins =       0.00E+00
(PID.TID 0000.0001) //         No. Y exchanges =              0
(PID.TID 0000.0001) //            Max. Y spins =              0
(PID.TID 0000.0001) //            Min. Y spins =     1000000000
(PID.TID 0000.0001) //          Total. Y spins =              0
(PID.TID 0000.0001) //            Avg. Y spins =       0.00E+00
(PID.TID 0000.0001) // o Tile number: 000009
(PID.TID 0000.0001) //         No. X exchanges =              0
(PID.TID 0000.0001) //            Max. X spins =              0
(PID.TID 0000.0001) //            Min. X spins =     1000000000
(PID.TID 0000.0001) //          Total. X spins =              0
(PID.TID 0000.0001) //            Avg. X spins =       0.00E+00
(PID.TID 0000.0001) //         No. Y exchanges =              0
(PID.TID 0000.0001) //            Max. Y spins =              0
(PID.TID 0000.0001) //            Min. Y spins =     1000000000
(PID.TID 0000.0001) //          Total. Y spins =              0
(PID.TID 0000.0001) //            Avg. Y spins =       0.00E+00
(PID.TID 0000.0001) // o Tile number: 000010
(PID.TID 0000.0001) //         No. X exchanges =              0
(PID.TID 0000.0001) //            Max. X spins =              0
(PID.TID 0000.0001) //            Min. X spins =     1000000000
(PID.TID 0000.0001) //          Total. X spins =              0
(PID.TID 0000.0001) //            Avg. X spins =       0.00E+00
(PID.TID 0000.0001) //         No. Y exchanges =              0
(PID.TID 0000.0001) //            Max. Y spins =              0
(PID.TID 0000.0001) //            Min. Y spins =     1000000000
(PID.TID 0000.0001) //          Total. Y spins =              0
(PID.TID 0000.0001) //            Avg. Y spins =       0.00E+00
(PID.TID 0000.0001) // o Tile number: 000011
(PID.TID 0000.0001) //         No. X exchanges =              0
(PID.TID 0000.0001) //            Max. X spins =              0
(PID.TID 0000.0001) //            Min. X spins =     1000000000
(PID.TID 0000.0001) //          Total. X spins =              0
(PID.TID 0000.0001) //            Avg. X spins =       0.00E+00
(PID.TID 0000.0001) //         No. Y exchanges =              0
(PID.TID 0000.0001) //            Max. Y spins =              0
(PID.TID 0000.0001) //            Min. Y spins =     1000000000
(PID.TID 0000.0001) //          Total. Y spins =              0
(PID.TID 0000.0001) //            Avg. Y spins =       0.00E+00
(PID.TID 0000.0001) // o Tile number: 000012
(PID.TID 0000.0001) //         No. X exchanges =              0
(PID.TID 0000.0001) //            Max. X spins =              0
(PID.TID 0000.0001) //            Min. X spins =     1000000000
(PID.TID 0000.0001) //          Total. X spins =              0
(PID.TID 0000.0001) //            Avg. X spins =       0.00E+00
(PID.TID 0000.0001) //         No. Y exchanges =              0
(PID.TID 0000.0001) //            Max. Y spins =              0
(PID.TID 0000.0001) //            Min. Y spins =     1000000000
(PID.TID 0000.0001) //          Total. Y spins =              0
(PID.TID 0000.0001) //            Avg. Y spins =       0.00E+00
(PID.TID 0000.0001) // o Tile number: 000013
(PID.TID 0000.0001) //         No. X exchanges =              0
(PID.TID 0000.0001) //            Max. X spins =              0
(PID.TID 0000.0001) //            Min. X spins =     1000000000
(PID.TID 0000.0001) //          Total. X spins =              0
(PID.TID 0000.0001) //            Avg. X spins =       0.00E+00
(PID.TID 0000.0001) //         No. Y exchanges =              0
(PID.TID 0000.0001) //            Max. Y spins =              0
(PID.TID 0000.0001) //            Min. Y spins =     1000000000
(PID.TID 0000.0001) //          Total. Y spins =              0
(PID.TID 0000.0001) //            Avg. Y spins =       0.00E+00
(PID.TID 0000.0001) // o Tile number: 000014
(PID.TID 0000.0001) //         No. X exchanges =              0
(PID.TID 0000.0001) //            Max. X spins =              0
(PID.TID 0000.0001) //            Min. X spins =     1000000000
(PID.TID 0000.0001) //          Total. X spins =              0
(PID.TID 0000.0001) //            Avg. X spins =       0.00E+00
(PID.TID 0000.0001) //         No. Y exchanges =              0
(PID.TID 0000.0001) //            Max. Y spins =              0
(PID.TID 0000.0001) //            Min. Y spins =     1000000000
(PID.TID 0000.0001) //          Total. Y spins =              0
(PID.TID 0000.0001) //            Avg. Y spins =       0.00E+00
(PID.TID 0000.0001) // o Tile number: 000015
(PID.TID 0000.0001) //         No. X exchanges =              0
(PID.TID 0000.0001) //            Max. X spins =              0
(PID.TID 0000.0001) //            Min. X spins =     1000000000
(PID.TID 0000.0001) //          Total. X spins =              0
(PID.TID 0000.0001) //            Avg. X spins =       0.00E+00
(PID.TID 0000.0001) //         No. Y exchanges =              0
(PID.TID 0000.0001) //            Max. Y spins =              0
(PID.TID 0000.0001) //            Min. Y spins =     1000000000
(PID.TID 0000.0001) //          Total. Y spins =              0
(PID.TID 0000.0001) //            Avg. Y spins =       0.00E+00
(PID.TID 0000.0001) // o Tile number: 000016
(PID.TID 0000.0001) //         No. X exchanges =              0
(PID.TID 0000.0001) //            Max. X spins =              0
(PID.TID 0000.0001) //            Min. X spins =     1000000000
(PID.TID 0000.0001) //          Total. X spins =              0
(PID.TID 0000.0001) //            Avg. X spins =       0.00E+00
(PID.TID 0000.0001) //         No. Y exchanges =              0
(PID.TID 0000.0001) //            Max. Y spins =              0
(PID.TID 0000.0001) //            Min. Y spins =     1000000000
(PID.TID 0000.0001) //          Total. Y spins =              0
(PID.TID 0000.0001) //            Avg. Y spins =       0.00E+00
(PID.TID 0000.0001) // o Tile number: 000017
(PID.TID 0000.0001) //         No. X exchanges =              0
(PID.TID 0000.0001) //            Max. X spins =              0
(PID.TID 0000.0001) //            Min. X spins =     1000000000
(PID.TID 0000.0001) //          Total. X spins =              0
(PID.TID 0000.0001) //            Avg. X spins =       0.00E+00
(PID.TID 0000.0001) //         No. Y exchanges =              0
(PID.TID 0000.0001) //            Max. Y spins =              0
(PID.TID 0000.0001) //            Min. Y spins =     1000000000
(PID.TID 0000.0001) //          Total. Y spins =              0
(PID.TID 0000.0001) //            Avg. Y spins =       0.00E+00
(PID.TID 0000.0001) // o Tile number: 000018
(PID.TID 0000.0001) //         No. X exchanges =              0
(PID.TID 0000.0001) //            Max. X spins =              0
(PID.TID 0000.0001) //            Min. X spins =     1000000000
(PID.TID 0000.0001) //          Total. X spins =              0
(PID.TID 0000.0001) //            Avg. X spins =       0.00E+00
(PID.TID 0000.0001) //         No. Y exchanges =              0
(PID.TID 0000.0001) //            Max. Y spins =              0
(PID.TID 0000.0001) //            Min. Y spins =     1000000000
(PID.TID 0000.0001) //          Total. Y spins =              0
(PID.TID 0000.0001) //            Avg. Y spins =       0.00E+00
(PID.TID 0000.0001) // o Tile number: 000019
(PID.TID 0000.0001) //         No. X exchanges =              0
(PID.TID 0000.0001) //            Max. X spins =              0
(PID.TID 0000.0001) //            Min. X spins =     1000000000
(PID.TID 0000.0001) //          Total. X spins =              0
(PID.TID 0000.0001) //            Avg. X spins =       0.00E+00
(PID.TID 0000.0001) //         No. Y exchanges =              0
(PID.TID 0000.0001) //            Max. Y spins =              0
(PID.TID 0000.0001) //            Min. Y spins =     1000000000
(PID.TID 0000.0001) //          Total. Y spins =              0
(PID.TID 0000.0001) //            Avg. Y spins =       0.00E+00
(PID.TID 0000.0001) // o Tile number: 000020
(PID.TID 0000.0001) //         No. X exchanges =              0
(PID.TID 0000.0001) //            Max. X spins =              0
(PID.TID 0000.0001) //            Min. X spins =     1000000000
(PID.TID 0000.0001) //          Total. X spins =              0
(PID.TID 0000.0001) //            Avg. X spins =       0.00E+00
(PID.TID 0000.0001) //         No. Y exchanges =              0
(PID.TID 0000.0001) //            Max. Y spins =              0
(PID.TID 0000.0001) //            Min. Y spins =     1000000000
(PID.TID 0000.0001) //          Total. Y spins =              0
(PID.TID 0000.0001) //            Avg. Y spins =       0.00E+00
(PID.TID 0000.0001) // o Tile number: 000021
(PID.TID 0000.0001) //         No. X exchanges =              0
(PID.TID 0000.0001) //            Max. X spins =              0
(PID.TID 0000.0001) //            Min. X spins =     1000000000
(PID.TID 0000.0001) //          Total. X spins =              0
(PID.TID 0000.0001) //            Avg. X spins =       0.00E+00
(PID.TID 0000.0001) //         No. Y exchanges =              0
(PID.TID 0000.0001) //            Max. Y spins =              0
(PID.TID 0000.0001) //            Min. Y spins =     1000000000
(PID.TID 0000.0001) //          Total. Y spins =              0
(PID.TID 0000.0001) //            Avg. Y spins =       0.00E+00
(PID.TID 0000.0001) // o Tile number: 000022
(PID.TID 0000.0001) //         No. X exchanges =              0
(PID.TID 0000.0001) //            Max. X spins =              0
(PID.TID 0000.0001) //            Min. X spins =     1000000000
(PID.TID 0000.0001) //          Total. X spins =              0
(PID.TID 0000.0001) //            Avg. X spins =       0.00E+00
(PID.TID 0000.0001) //         No. Y exchanges =              0
(PID.TID 0000.0001) //            Max. Y spins =              0
(PID.TID 0000.0001) //            Min. Y spins =     1000000000
(PID.TID 0000.0001) //          Total. Y spins =              0
(PID.TID 0000.0001) //            Avg. Y spins =       0.00E+00
(PID.TID 0000.0001) // o Tile number: 000023
(PID.TID 0000.0001) //         No. X exchanges =              0
(PID.TID 0000.0001) //            Max. X spins =              0
(PID.TID 0000.0001) //            Min. X spins =     1000000000
(PID.TID 0000.0001) //          Total. X spins =              0
(PID.TID 0000.0001) //            Avg. X spins =       0.00E+00
(PID.TID 0000.0001) //         No. Y exchanges =              0
(PID.TID 0000.0001) //            Max. Y spins =              0
(PID.TID 0000.0001) //            Min. Y spins =     1000000000
(PID.TID 0000.0001) //          Total. Y spins =              0
(PID.TID 0000.0001) //            Avg. Y spins =       0.00E+00
(PID.TID 0000.0001) // o Tile number: 000024
(PID.TID 0000.0001) //         No. X exchanges =              0
(PID.TID 0000.0001) //            Max. X spins =              0
(PID.TID 0000.0001) //            Min. X spins =     1000000000
(PID.TID 0000.0001) //          Total. X spins =              0
(PID.TID 0000.0001) //            Avg. X spins =       0.00E+00
(PID.TID 0000.0001) //         No. Y exchanges =              0
(PID.TID 0000.0001) //            Max. Y spins =              0
(PID.TID 0000.0001) //            Min. Y spins =     1000000000
(PID.TID 0000.0001) //          Total. Y spins =              0
(PID.TID 0000.0001) //            Avg. Y spins =       0.00E+00
(PID.TID 0000.0001) // o Thread number: 000001
(PID.TID 0000.0001) //            No. barriers =         402994
(PID.TID 0000.0001) //      Max. barrier spins =              1
(PID.TID 0000.0001) //      Min. barrier spins =              1
(PID.TID 0000.0001) //     Total barrier spins =         402994
(PID.TID 0000.0001) //      Avg. barrier spins =       1.00E+00
PROGRAM MAIN: Execution ended Normally
