(PID.TID 0000.0001) 
(PID.TID 0000.0001) // ======================================================
(PID.TID 0000.0001) //                      MITgcm UV
(PID.TID 0000.0001) //                      =========
(PID.TID 0000.0001) // ======================================================
(PID.TID 0000.0001) // execution environment starting up...
(PID.TID 0000.0001) 
(PID.TID 0000.0001) // MITgcmUV version:  checkpoint69j
(PID.TID 0000.0001) // Build user:        jm_c
(PID.TID 0000.0001) // Build host:        villon
(PID.TID 0000.0001) // Build date:        Thu Dec 25 16:22:59 EST 2025
(PID.TID 0000.0001) 
(PID.TID 0000.0001) // =======================================================
(PID.TID 0000.0001) // Execution Environment parameter file "eedata"
(PID.TID 0000.0001) // =======================================================
(PID.TID 0000.0001) ># Example "eedata" file
(PID.TID 0000.0001) ># Lines beginning "#" are comments
(PID.TID 0000.0001) ># nTx - No. threads per process in X
(PID.TID 0000.0001) ># nTy - No. threads per process in Y
(PID.TID 0000.0001) > &EEPARMS
(PID.TID 0000.0001) > useCubedSphereExchange=.TRUE.,
(PID.TID 0000.0001) > nTx=1,
(PID.TID 0000.0001) > nTy=1,
(PID.TID 0000.0001) > /
(PID.TID 0000.0001) ># Note: Some systems use & as the
(PID.TID 0000.0001) ># namelist terminator. Other systems
(PID.TID 0000.0001) ># use a / character (as shown here).
(PID.TID 0000.0001) 
(PID.TID 0000.0001) // =======================================================
(PID.TID 0000.0001) // Computational Grid Specification ( see files "SIZE.h" )
(PID.TID 0000.0001) //                                  ( and "eedata"       )
(PID.TID 0000.0001) // =======================================================
(PID.TID 0000.0001)      nPx =    8 ; /* No. processes in X */
(PID.TID 0000.0001)      nPy =    1 ; /* No. processes in Y */
(PID.TID 0000.0001)      nSx =    3 ; /* No. tiles in X per process */
(PID.TID 0000.0001)      nSy =    1 ; /* No. tiles in Y per process */
(PID.TID 0000.0001)      sNx =   16 ; /* Tile size in X */
(PID.TID 0000.0001)      sNy =   16 ; /* Tile size in Y */
(PID.TID 0000.0001)      OLx =    4 ; /* Tile overlap distance in X */
(PID.TID 0000.0001)      OLy =    4 ; /* Tile overlap distance in Y */
(PID.TID 0000.0001)      nTx =    1 ; /* No. threads in X per process */
(PID.TID 0000.0001)      nTy =    1 ; /* No. threads in Y per process */
(PID.TID 0000.0001)       Nr =   50 ; /* No. levels in the vertical   */
(PID.TID 0000.0001)       Nx =  384 ; /* Total domain size in X ( = nPx*nSx*sNx ) */
(PID.TID 0000.0001)       Ny =   16 ; /* Total domain size in Y ( = nPy*nSy*sNy ) */
(PID.TID 0000.0001)   nTiles =    3 ; /* Total no. tiles per process ( = nSx*nSy ) */
(PID.TID 0000.0001)   nProcs =    8 ; /* Total no. processes ( = nPx*nPy ) */
(PID.TID 0000.0001) nThreads =    1 ; /* Total no. threads per process ( = nTx*nTy ) */
(PID.TID 0000.0001) usingMPI =    T ; /* Flag used to control whether MPI is in use */
(PID.TID 0000.0001)                   /*  note: To execute a program with MPI calls */
(PID.TID 0000.0001)                   /*  it must be launched appropriately e.g     */
(PID.TID 0000.0001)                   /*  "mpirun -np 64 ......"                    */
(PID.TID 0000.0001) useCoupler=   F ; /* Flag used to control communications with   */
(PID.TID 0000.0001)                   /*  other model components, through a coupler */
(PID.TID 0000.0001) useNest2W_parent =    F ;/* Control 2-W Nesting comm */
(PID.TID 0000.0001) useNest2W_child  =    F ;/* Control 2-W Nesting comm */
(PID.TID 0000.0001) debugMode =    F ; /* print debug msg. (sequence of S/R calls)  */
(PID.TID 0000.0001) printMapIncludesZeros=    F ; /* print zeros in Std.Output maps */
(PID.TID 0000.0001) maxLengthPrt1D=   65 /* maxLength of 1D array printed to StdOut */
(PID.TID 0000.0001) 
(PID.TID 0000.0001) ======= Starting MPI parallel Run =========
(PID.TID 0000.0001)  My Processor Name (len:  6 ) = villon
(PID.TID 0000.0001)  Located at (  0,  0) on processor grid (0:  7,0:  0)
(PID.TID 0000.0001)  Origin at  (     1,     1) on global grid (1:   384,1:    16)
(PID.TID 0000.0001)  North neighbor = processor 0000
(PID.TID 0000.0001)  South neighbor = processor 0000
(PID.TID 0000.0001)   East neighbor = processor 0001
(PID.TID 0000.0001)   West neighbor = processor 0007
(PID.TID 0000.0001) // ======================================================
(PID.TID 0000.0001) // Mapping of tiles to threads
(PID.TID 0000.0001) // ======================================================
(PID.TID 0000.0001) // -o- Thread   1, tiles (   1:   3,   1:   1)
(PID.TID 0000.0001) 
(PID.TID 0000.0001) W2_READPARMS: opening data.exch2
(PID.TID 0000.0001)  OPEN_COPY_DATA_FILE: opening file data.exch2
(PID.TID 0000.0001) // =======================================================
(PID.TID 0000.0001) // Parameter file "data.exch2"
(PID.TID 0000.0001) // =======================================================
(PID.TID 0000.0001) ># EXCH2 Package: Wrapper-2 User Choice
(PID.TID 0000.0001) >#--------------------
(PID.TID 0000.0001) >#  preDefTopol   :: pre-defined Topology selector:
(PID.TID 0000.0001) >#                :: = 0 : topology defined from processing "data.exch2";
(PID.TID 0000.0001) >#                :: = 1 : simple, single facet topology;
(PID.TID 0000.0001) >#                :: = 2 : customized topology (w2_set_myown_facets)
(PID.TID 0000.0001) >#                :: = 3 : 6-facet Cube (3 face-dims: nRed, nGreen, nBlue).
(PID.TID 0000.0001) >#  dimsFacets    :: facet pair of dimensions (n1x,n1y, n2x,n2y ...)
(PID.TID 0000.0001) >#  facetEdgeLink :: Face-Edge connectivity map:
(PID.TID 0000.0001) >#    facetEdgeLink(i,j)=XX.1 : face(j)-edge(i) (i=1,2,3,4 <==> N,S,E,W)
(PID.TID 0000.0001) >#    is connected to Northern edge of face "XX" ; similarly,
(PID.TID 0000.0001) >#    = XX.2 : to Southern.E, XX.3 = Eastern.E, XX.4 = Western.E of face "XX"
(PID.TID 0000.0001) >#  blankList     :: List of "blank" tiles
(PID.TID 0000.0001) >#  W2_mapIO      :: global map IO selector (-1 = old type ; 0 = 1 long line in X
(PID.TID 0000.0001) >#                :: 1 = compact, mostly in Y dir)
(PID.TID 0000.0001) >#  W2_printMsg   :: option for information messages printing
(PID.TID 0000.0001) >#                :: <0 : write to log file ; =0 : minimum print ;
(PID.TID 0000.0001) >#                :: =1 : no duplicated print ; =2 : all processes do print
(PID.TID 0000.0001) >#--------------------
(PID.TID 0000.0001) > &W2_EXCH2_PARM01
(PID.TID 0000.0001) ># W2_printMsg= 0,
(PID.TID 0000.0001) >  W2_mapIO   = 1,
(PID.TID 0000.0001) >  preDefTopol=0,
(PID.TID 0000.0001) >  dimsFacets(1:12) = 32, 32, 32, 32, 32, 32, 32, 32, 32, 32, 32, 32,
(PID.TID 0000.0001) >  facetEdgeLink(1:4,1)= 3.4, 6.1, 2.4, 5.1,
(PID.TID 0000.0001) >  facetEdgeLink(1:4,2)= 3.2, 6.3, 4.2, 1.3,
(PID.TID 0000.0001) >  facetEdgeLink(1:4,3)= 5.4, 2.1, 4.4, 1.1,
(PID.TID 0000.0001) >  facetEdgeLink(1:4,4)= 5.2, 2.3, 6.2, 3.3,
(PID.TID 0000.0001) >  facetEdgeLink(1:4,5)= 1.4, 4.1, 6.4, 3.1,
(PID.TID 0000.0001) >  facetEdgeLink(1:4,6)= 1.2, 4.3, 2.2, 5.3,
(PID.TID 0000.0001) >#when using bathy_north.bin:
(PID.TID 0000.0001) >#  blankList=1,2,5,6,14,16,18,20,21,22,23,24,
(PID.TID 0000.0001) >#when using bathy_south.bin:
(PID.TID 0000.0001) ># blankList=3,4,7,8,9,10,11,12,13,15,17,19,
(PID.TID 0000.0001) > /
(PID.TID 0000.0001) 
(PID.TID 0000.0001) W2_READPARMS: finished reading data.exch2
(PID.TID 0000.0001) W2_useE2ioLayOut=    T ;/* T: use Exch2 glob IO map; F: use model default */
(PID.TID 0000.0001) W2_mapIO        =   1 ; /* select option for Exch2 global-IO map */
(PID.TID 0000.0001) W2_printMsg     =  -1 ; /* select option for printing information */
(PID.TID 0000.0001) ===== Start setting W2 TOPOLOGY:
(PID.TID 0000.0001)  write to log-file: w2_tile_topology.0000.log
(PID.TID 0000.0001) =====       setting W2 TOPOLOGY: Done
(PID.TID 0000.0001) 
(PID.TID 0000.0001)  INI_PARMS: opening model parameter file "data"
(PID.TID 0000.0001)  OPEN_COPY_DATA_FILE: opening file data
(PID.TID 0000.0001) // =======================================================
(PID.TID 0000.0001) // Parameter file "data"
(PID.TID 0000.0001) // =======================================================
(PID.TID 0000.0001) ># ====================
(PID.TID 0000.0001) ># | Model parameters |
(PID.TID 0000.0001) ># ====================
(PID.TID 0000.0001) >#
(PID.TID 0000.0001) ># Continuous equation parameters
(PID.TID 0000.0001) > &PARM01
(PID.TID 0000.0001) > tRef = 3*23., 3*22., 21., 2*20., 19., 2*18., 17., 2*16., 15., 14., 13.,
(PID.TID 0000.0001) >        12., 11., 2*9., 8., 7., 2*6., 2*5., 3*4., 3*3., 4*2., 12*1.,
(PID.TID 0000.0001) > sRef = 50*34.5,
(PID.TID 0000.0001) > no_slip_sides  = .TRUE.,
(PID.TID 0000.0001) > no_slip_bottom = .TRUE.,
(PID.TID 0000.0001) >#
(PID.TID 0000.0001) > viscAr=1.E-3,
(PID.TID 0000.0001) >#
(PID.TID 0000.0001) > viscAh=1.E0,
(PID.TID 0000.0001) > viscAhGrid=2.E-2,
(PID.TID 0000.0001) ># viscAh=2.0e4,
(PID.TID 0000.0001) >#
(PID.TID 0000.0001) > diffKhT=1.E1,
(PID.TID 0000.0001) > diffKrT=1.E-5,
(PID.TID 0000.0001) > diffKhS=1.E1,
(PID.TID 0000.0001) > diffKrS=1.E-5,
(PID.TID 0000.0001) >#
(PID.TID 0000.0001) >### diffKrBL79surf=0.1E-4,
(PID.TID 0000.0001) >### diffKrBL79deep=1.0E-4,
(PID.TID 0000.0001) > bottomDragQuadratic = 0.001,
(PID.TID 0000.0001) >#when using ggl90
(PID.TID 0000.0001) > ivdc_kappa=10.,
(PID.TID 0000.0001) > implicitDiffusion=.TRUE.,
(PID.TID 0000.0001) > implicitViscosity=.TRUE.,
(PID.TID 0000.0001) > useRealFreshWaterFlux=.TRUE.,
(PID.TID 0000.0001) ># balanceThetaClimRelax=.TRUE.,
(PID.TID 0000.0001) > balanceSaltClimRelax=.TRUE.,
(PID.TID 0000.0001) > selectBalanceEmPmR=1,
(PID.TID 0000.0001) ># balanceQnet=.TRUE.,
(PID.TID 0000.0001) > allowFreezing=.FALSE.,
(PID.TID 0000.0001) >### hFacInf=0.2,
(PID.TID 0000.0001) >### hFacSup=2.0,
(PID.TID 0000.0001) > hFacMin=.2,
(PID.TID 0000.0001) > hFacMinDr=5.,
(PID.TID 0000.0001) > select_rStar=2,
(PID.TID 0000.0001) > nonlinFreeSurf=4,
(PID.TID 0000.0001) > gravity=9.81,
(PID.TID 0000.0001) > rhonil=1029.,
(PID.TID 0000.0001) > rhoConst=1029.,
(PID.TID 0000.0001) > rhoConstFresh=1000.,
(PID.TID 0000.0001) > convertFW2Salt=-1.,
(PID.TID 0000.0001) > eosType='JMD95Z',
(PID.TID 0000.0001) > implicitFreeSurface=.TRUE.,
(PID.TID 0000.0001) > exactConserv=.TRUE.,
(PID.TID 0000.0001) > useSingleCpuIO=.TRUE.,
(PID.TID 0000.0001) > tempAdvScheme=30,
(PID.TID 0000.0001) > saltAdvScheme=30,
(PID.TID 0000.0001) > tempVertAdvScheme=3,
(PID.TID 0000.0001) > saltVertAdvScheme=3,
(PID.TID 0000.0001) > tempImplVertAdv=.TRUE.,
(PID.TID 0000.0001) > saltImplVertAdv=.TRUE.,
(PID.TID 0000.0001) > staggerTimeStep=.TRUE.,
(PID.TID 0000.0001) > vectorInvariantMomentum=.TRUE.,
(PID.TID 0000.0001) >#when using the cd scheme:
(PID.TID 0000.0001) ># useCDscheme=.TRUE.,
(PID.TID 0000.0001) > useJamartWetPoints=.TRUE.,
(PID.TID 0000.0001) > readBinaryPrec=32,
(PID.TID 0000.0001) > writeBinaryPrec=32,
(PID.TID 0000.0001) > debugLevel=1,
(PID.TID 0000.0001) > /
(PID.TID 0000.0001) >
(PID.TID 0000.0001) ># Elliptic solver parameters
(PID.TID 0000.0001) > &PARM02
(PID.TID 0000.0001) > cg2dMaxIters=300,
(PID.TID 0000.0001) > cg2dTargetResidual=1.E-9,
(PID.TID 0000.0001) >#printResidualFreq=0,
(PID.TID 0000.0001) > /
(PID.TID 0000.0001) >
(PID.TID 0000.0001) ># Time stepping parameters
(PID.TID 0000.0001) > &PARM03
(PID.TID 0000.0001) > nIter0=0,
(PID.TID 0000.0001) >#2 lev2 for testing:
(PID.TID 0000.0001) > nTimeSteps=8,
(PID.TID 0000.0001) >#60 years with 1h dt
(PID.TID 0000.0001) >#nTimeSteps=525985,
(PID.TID 0000.0001) >#
(PID.TID 0000.0001) > forcing_In_AB=.FALSE.,
(PID.TID 0000.0001) > momDissip_In_AB=.FALSE.,
(PID.TID 0000.0001) >#when using the cd scheme:
(PID.TID 0000.0001) ># epsAB_CD = 0.25,
(PID.TID 0000.0001) ># tauCD=172800.0,
(PID.TID 0000.0001) > deltaTmom   =3600.,
(PID.TID 0000.0001) > deltaTtracer=3600.,
(PID.TID 0000.0001) > deltaTfreesurf=3600.,
(PID.TID 0000.0001) > deltaTClock =3600.,
(PID.TID 0000.0001) >#when using ab2:
(PID.TID 0000.0001) ># abEps = 0.1,
(PID.TID 0000.0001) >#when using ab3:
(PID.TID 0000.0001) > doAB_onGtGs=.FALSE.,
(PID.TID 0000.0001) > alph_AB=0.5,
(PID.TID 0000.0001) > beta_AB=0.281105,
(PID.TID 0000.0001) >#
(PID.TID 0000.0001) > pChkptFreq  =31536000.0,
(PID.TID 0000.0001) > chkptFreq   =31536000.0,
(PID.TID 0000.0001) ># dumpFreq    =31536000.0,
(PID.TID 0000.0001) ># monitorFreq = 6307200.0,
(PID.TID 0000.0001) > monitorFreq = 7200.0,
(PID.TID 0000.0001) > monitorSelect = 2,
(PID.TID 0000.0001) > dumpInitAndLast = .TRUE.,
(PID.TID 0000.0001) > adjMonitorFreq = 10800.0,
(PID.TID 0000.0001) >#pickupStrictlyMatch=.FALSE.,
(PID.TID 0000.0001) > /
(PID.TID 0000.0001) >
(PID.TID 0000.0001) ># Gridding parameters
(PID.TID 0000.0001) > &PARM04
(PID.TID 0000.0001) > horizGridFile='grid_cs32',
(PID.TID 0000.0001) > usingCurvilinearGrid=.TRUE.,
(PID.TID 0000.0001) > delR =
(PID.TID 0000.0001) >     10.00, 10.00, 10.00, 10.00, 10.00, 10.00, 10.00, 10.01,
(PID.TID 0000.0001) >     10.03, 10.11, 10.32, 10.80, 11.76, 13.42, 16.04, 19.82, 24.85,
(PID.TID 0000.0001) >     31.10, 38.42, 46.50, 55.00, 63.50, 71.58, 78.90, 85.15, 90.18,
(PID.TID 0000.0001) >     93.96, 96.58, 98.25, 99.25,100.01,101.33,104.56,111.33,122.83,
(PID.TID 0000.0001) >     139.09,158.94,180.83,203.55,226.50,249.50,272.50,295.50,318.50,
(PID.TID 0000.0001) >     341.50,364.50,387.50,410.50,433.50,456.50,
(PID.TID 0000.0001) > /
(PID.TID 0000.0001) >
(PID.TID 0000.0001) ># Input datasets
(PID.TID 0000.0001) > &PARM05
(PID.TID 0000.0001) > adTapeDir='tapes',
(PID.TID 0000.0001) ># bathyFile      ='bathy_shallow.bin',
(PID.TID 0000.0001) > bathyFile      ='bathy_global.bin',
(PID.TID 0000.0001) ># bathyFile      ='bathy_north.bin',
(PID.TID 0000.0001) ># bathyFile      ='bathy_south.bin',
(PID.TID 0000.0001) > hydrogThetaFile='some_T_atlas.bin',
(PID.TID 0000.0001) > hydrogSaltFile ='some_S_atlas.bin',
(PID.TID 0000.0001) > /
(PID.TID 0000.0001) 
(PID.TID 0000.0001)  INI_PARMS ; starts to read PARM01
(PID.TID 0000.0001)  INI_PARMS ; read PARM01 : OK
(PID.TID 0000.0001)  INI_PARMS ; starts to read PARM02
(PID.TID 0000.0001)  INI_PARMS ; read PARM02 : OK
(PID.TID 0000.0001)  INI_PARMS ; starts to read PARM03
(PID.TID 0000.0001)  INI_PARMS ; read PARM03 : OK
(PID.TID 0000.0001)  INI_PARMS ; starts to read PARM04
(PID.TID 0000.0001)  INI_PARMS ; read PARM04 : OK
(PID.TID 0000.0001)  INI_PARMS ; starts to read PARM05
(PID.TID 0000.0001)  INI_PARMS ; read PARM05 : OK
(PID.TID 0000.0001)  INI_PARMS: finished reading file "data"
(PID.TID 0000.0001)  PACKAGES_BOOT: opening data.pkg
(PID.TID 0000.0001)  OPEN_COPY_DATA_FILE: opening file data.pkg
(PID.TID 0000.0001) // =======================================================
(PID.TID 0000.0001) // Parameter file "data.pkg"
(PID.TID 0000.0001) // =======================================================
(PID.TID 0000.0001) ># Packages
(PID.TID 0000.0001) > &PACKAGES
(PID.TID 0000.0001) > useEXF             = .TRUE.,
(PID.TID 0000.0001) > useCAL             = .TRUE.,
(PID.TID 0000.0001) > useGMRedi          = .TRUE.,
(PID.TID 0000.0001) > useSeaice          = .TRUE.,
(PID.TID 0000.0001) > useGGL90           = .TRUE.,
(PID.TID 0000.0001) > useSALT_PlUME      = .TRUE.,
(PID.TID 0000.0001) > useDiagnostics     = .FALSE.,
(PID.TID 0000.0001) > useECCO            = .TRUE.,
(PID.TID 0000.0001) > useCTRL            = .TRUE.,
(PID.TID 0000.0001) > useProfiles        = .TRUE.,
(PID.TID 0000.0001) > useAUTODIFF        = .TRUE.,
(PID.TID 0000.0001) > useSMOOTH          = .TRUE.,
(PID.TID 0000.0001) > useGrdchk          = .TRUE.,
(PID.TID 0000.0001) >#
(PID.TID 0000.0001) >#useSBO             = .TRUE.,
(PID.TID 0000.0001) >#useRBCS            = .TRUE.,
(PID.TID 0000.0001) >#useKPP             = .TRUE.,
(PID.TID 0000.0001) >#useThsice          = .TRUE.,
(PID.TID 0000.0001) >#useDOWN_SLOPE      = .TRUE.,
(PID.TID 0000.0001) >#useLayers          = .TRUE.,
(PID.TID 0000.0001) >#usePtracers        = .TRUE.,
(PID.TID 0000.0001) >#useBBL             = .TRUE.,
(PID.TID 0000.0001) > /
(PID.TID 0000.0001) 
(PID.TID 0000.0001)  PACKAGES_BOOT: finished reading data.pkg
(PID.TID 0000.0001)  PACKAGES_BOOT: On/Off package Summary
 --------  pkgs with a standard "usePKG" On/Off switch in "data.pkg":  --------
 pkg/ggl90                compiled   and   used ( useGGL90                 = T )
 pkg/gmredi               compiled   and   used ( useGMRedi                = T )
 pkg/cal                  compiled   and   used ( useCAL                   = T )
 pkg/exf                  compiled   and   used ( useEXF                   = T )
 pkg/autodiff             compiled   and   used ( useAUTODIFF              = T )
 pkg/grdchk               compiled   and   used ( useGrdchk                = T )
 pkg/smooth               compiled   and   used ( useSMOOTH                = T )
 pkg/profiles             compiled   and   used ( usePROFILES              = T )
 pkg/ecco                 compiled   and   used ( useECCO                  = T )
 pkg/ctrl                 compiled   and   used ( useCTRL                  = T )
 pkg/sbo                  compiled but not used ( useSBO                   = F )
 pkg/seaice               compiled   and   used ( useSEAICE                = T )
 pkg/salt_plume           compiled   and   used ( useSALT_PLUME            = T )
 pkg/diagnostics          compiled but not used ( useDiagnostics           = F )
 -------- pkgs without standard "usePKG" On/Off switch in "data.pkg":  --------
 pkg/generic_advdiff      compiled   and   used ( useGAD                   = T )
 pkg/mom_common           compiled   and   used ( momStepping              = T )
 pkg/mom_vecinv           compiled   and   used ( +vectorInvariantMomentum = T )
 pkg/monitor              compiled   and   used ( monitorFreq > 0.         = T )
 pkg/debug                compiled but not used ( debugMode                = F )
 pkg/exch2                compiled   and   used
 pkg/rw                   compiled   and   used
 pkg/mdsio                compiled   and   used
 pkg/autodiff             compiled   and   used
 pkg/cost                 compiled   and   used
(PID.TID 0000.0001)  PACKAGES_BOOT: End of package Summary
(PID.TID 0000.0001) 
(PID.TID 0000.0001) CAL_READPARMS: opening data.cal
(PID.TID 0000.0001)  OPEN_COPY_DATA_FILE: opening file data.cal
(PID.TID 0000.0001) // =======================================================
(PID.TID 0000.0001) // Parameter file "data.cal"
(PID.TID 0000.0001) // =======================================================
(PID.TID 0000.0001) >#
(PID.TID 0000.0001) ># *******************
(PID.TID 0000.0001) ># Calendar Parameters
(PID.TID 0000.0001) ># *******************
(PID.TID 0000.0001) > &CAL_NML
(PID.TID 0000.0001) > TheCalendar='gregorian',
(PID.TID 0000.0001) > calendarDumps=.TRUE.,
(PID.TID 0000.0001) ># TheCalendar='model',
(PID.TID 0000.0001) > startDate_1=19480101,
(PID.TID 0000.0001) > startDate_2=120000,
(PID.TID 0000.0001) > /
(PID.TID 0000.0001) 
(PID.TID 0000.0001) CAL_READPARMS: finished reading data.cal
(PID.TID 0000.0001) EXF_READPARMS: opening data.exf
(PID.TID 0000.0001)  OPEN_COPY_DATA_FILE: opening file data.exf
(PID.TID 0000.0001) // =======================================================
(PID.TID 0000.0001) // Parameter file "data.exf"
(PID.TID 0000.0001) // =======================================================
(PID.TID 0000.0001) ># *********************
(PID.TID 0000.0001) ># External Forcing Data
(PID.TID 0000.0001) ># *********************
(PID.TID 0000.0001) >#
(PID.TID 0000.0001) > &EXF_NML_01
(PID.TID 0000.0001) >#see MITgcm/verification/global_ocean.cs32x15/input.icedyn/data.exf
(PID.TID 0000.0001) > exf_albedo        = 0.066,
(PID.TID 0000.0001) > ht                = 10.,
(PID.TID 0000.0001) > ocean_emissivity  = 1.,
(PID.TID 0000.0001) > atmrho            = 1.22,
(PID.TID 0000.0001) > humid_fac         = .608,
(PID.TID 0000.0001) >#
(PID.TID 0000.0001) > exf_iprec         = 32,
(PID.TID 0000.0001) > useExfCheckRange  = .FALSE.,
(PID.TID 0000.0001) > repeatPeriod      = 31536000.,
(PID.TID 0000.0001) > useAtmWind        = .TRUE.,
(PID.TID 0000.0001) > /
(PID.TID 0000.0001) >#
(PID.TID 0000.0001) > &EXF_NML_02
(PID.TID 0000.0001) > uwindfile         = 'CORE2_u10m_6hrly_r2_cnyf',
(PID.TID 0000.0001) > vwindfile         = 'CORE2_v10m_6hrly_r2_cnyf',
(PID.TID 0000.0001) > atempfile         = 'CORE2_tmp10m_6hrly_r2_cnyf',
(PID.TID 0000.0001) > aqhfile           = 'CORE2_spfh10m_6hrly_r2_cnyf',
(PID.TID 0000.0001) > precipfile        = 'CORE2_rain_monthly_r2_cnyf',
(PID.TID 0000.0001) > swdownfile        = 'CORE2_dsw_daily_r2_cnyf',
(PID.TID 0000.0001) > lwdownfile        = 'CORE2_dlw_daily_r2_cnyf',
(PID.TID 0000.0001) >#
(PID.TID 0000.0001) > ustressstartdate1   = 19470101,
(PID.TID 0000.0001) > ustressstartdate2   = 030000,
(PID.TID 0000.0001) > ustressperiod       = 21600.0,
(PID.TID 0000.0001) >#
(PID.TID 0000.0001) > vstressstartdate1   = 19470101,
(PID.TID 0000.0001) > vstressstartdate2   = 030000,
(PID.TID 0000.0001) > vstressperiod       = 21600.0,
(PID.TID 0000.0001) >#
(PID.TID 0000.0001) > atempstartdate1   = 19470101,
(PID.TID 0000.0001) > atempstartdate2   = 030000,
(PID.TID 0000.0001) > atempperiod       = 21600.0,
(PID.TID 0000.0001) >#
(PID.TID 0000.0001) > aqhstartdate1     = 19470101,
(PID.TID 0000.0001) > aqhstartdate2     = 030000,
(PID.TID 0000.0001) > aqhperiod         = 21600.0,
(PID.TID 0000.0001) >#
(PID.TID 0000.0001) > precipstartdate1  = 19470115,
(PID.TID 0000.0001) > precipstartdate2  = 120000,
(PID.TID 0000.0001) > precipperiod      = 2628000.0,
(PID.TID 0000.0001) >#or precipperiod = -12.,
(PID.TID 0000.0001) >#
(PID.TID 0000.0001) > runoffstartdate1  = 19470115,
(PID.TID 0000.0001) > runoffstartdate2  = 120000,
(PID.TID 0000.0001) > runoffperiod      = 2628000.0,
(PID.TID 0000.0001) >#
(PID.TID 0000.0001) > uwindstartdate1   = 19470101,
(PID.TID 0000.0001) > uwindstartdate2   = 030000,
(PID.TID 0000.0001) > uwindperiod       = 21600.0,
(PID.TID 0000.0001) >#
(PID.TID 0000.0001) > vwindstartdate1   = 19470101,
(PID.TID 0000.0001) > vwindstartdate2   = 030000,
(PID.TID 0000.0001) > vwindperiod       = 21600.0,
(PID.TID 0000.0001) >#
(PID.TID 0000.0001) > wspeedstartdate1   = 19470101,
(PID.TID 0000.0001) > wspeedstartdate2   = 120000,
(PID.TID 0000.0001) > wspeedperiod       = 21600.0,
(PID.TID 0000.0001) >#
(PID.TID 0000.0001) > swdownstartdate1  = 19470101,
(PID.TID 0000.0001) > swdownstartdate2  = 120000,
(PID.TID 0000.0001) > swdownperiod      = 86400.0,
(PID.TID 0000.0001) >#
(PID.TID 0000.0001) > lwdownstartdate1  = 19470101,
(PID.TID 0000.0001) > lwdownstartdate2  = 120000,
(PID.TID 0000.0001) > lwdownperiod      = 86400.0,
(PID.TID 0000.0001) >#
(PID.TID 0000.0001) > apressurestartdate1   = 19470101,
(PID.TID 0000.0001) > apressurestartdate2   = 120000,
(PID.TID 0000.0001) > apressureperiod       = 21600.0,
(PID.TID 0000.0001) >#
(PID.TID 0000.0001) > climsssfile       = 'some_SSS_atlas.bin',
(PID.TID 0000.0001) > climsssperiod     = -12.,
(PID.TID 0000.0001) ># climsssTauRelax   = 15768000.,
(PID.TID 0000.0001) > climsssTauRelax   = 25920000.,
(PID.TID 0000.0001) > /
(PID.TID 0000.0001) >#
(PID.TID 0000.0001) > &EXF_NML_03
(PID.TID 0000.0001) >#NOT FOR EIG exf_offset_atemp  = 273.3971,
(PID.TID 0000.0001) > exf_offset_atemp  = 273.15,
(PID.TID 0000.0001) >#not with core2_cnyf exf_inscal_runoff = 1.e-06,
(PID.TID 0000.0001) ># to compensate for sea level rise for nlfs/realFWF
(PID.TID 0000.0001) ># precip_exfremo_intercept = 1.073E-9,
(PID.TID 0000.0001) ># precip_exfremo_slope = -3.340E-18,
(PID.TID 0000.0001) > /
(PID.TID 0000.0001) >#
(PID.TID 0000.0001) > &EXF_NML_04
(PID.TID 0000.0001) > runoff_interpMethod = 0,
(PID.TID 0000.0001) > climsss_interpMethod = 0,
(PID.TID 0000.0001) >#
(PID.TID 0000.0001) > atemp_lon0        = 0.00D0,
(PID.TID 0000.0001) > atemp_lon_inc     = 1.875D0,
(PID.TID 0000.0001) > atemp_lat0        = -88.5420D0,
(PID.TID 0000.0001) > atemp_lat_inc     = 1.8888, 1.9000, 1.9024, 1.9034, 1.9039, 1.9042,
(PID.TID 0000.0001) >     1.9042, 1.9044, 1.9045, 1.9045, 1.9046, 1.9046, 1.9046, 1.9046,
(PID.TID 0000.0001) >     1.9047, 1.9046, 1.9047, 1.9047, 1.9047, 1.9047, 1.9047, 1.9047,
(PID.TID 0000.0001) >     1.9047, 1.9047, 1.9047, 1.9047, 1.9048, 1.9047, 1.9047, 1.9047,
(PID.TID 0000.0001) >     1.9047, 1.9048, 1.9047, 1.9047, 1.9048, 1.9047, 1.9047, 1.9048,
(PID.TID 0000.0001) >     1.9047, 1.9047, 1.9048, 1.9047, 1.9047, 1.9048, 1.9047, 1.9047,
(PID.TID 0000.0001) >     1.9048, 1.9047, 1.9047, 1.9048, 1.9047, 1.9047, 1.9048, 1.9047,
(PID.TID 0000.0001) >     1.9047, 1.9048, 1.9047, 1.9047, 1.9048, 1.9047, 1.9047, 1.9048,
(PID.TID 0000.0001) >     1.9047, 1.9047, 1.9047, 1.9047, 1.9048, 1.9047, 1.9047, 1.9047,
(PID.TID 0000.0001) >     1.9047, 1.9047, 1.9047, 1.9047, 1.9047, 1.9047, 1.9047, 1.9046,
(PID.TID 0000.0001) >     1.9047, 1.9046, 1.9046, 1.9046, 1.9046, 1.9045, 1.9045, 1.9044,
(PID.TID 0000.0001) >     1.9042, 1.9042, 1.9039, 1.9034, 1.9024, 1.9000, 1.8888, 1.8888,
(PID.TID 0000.0001) > atemp_nlon        = 192,
(PID.TID 0000.0001) > atemp_nlat        = 94,
(PID.TID 0000.0001) >#
(PID.TID 0000.0001) > aqh_lon0          = 0.00D0,
(PID.TID 0000.0001) > aqh_lon_inc       = 1.875D0,
(PID.TID 0000.0001) > aqh_lat0          = -88.5420D0,
(PID.TID 0000.0001) > aqh_lat_inc       = 1.8888, 1.9000, 1.9024, 1.9034, 1.9039, 1.9042,
(PID.TID 0000.0001) >     1.9042, 1.9044, 1.9045, 1.9045, 1.9046, 1.9046, 1.9046, 1.9046,
(PID.TID 0000.0001) >     1.9047, 1.9046, 1.9047, 1.9047, 1.9047, 1.9047, 1.9047, 1.9047,
(PID.TID 0000.0001) >     1.9047, 1.9047, 1.9047, 1.9047, 1.9048, 1.9047, 1.9047, 1.9047,
(PID.TID 0000.0001) >     1.9047, 1.9048, 1.9047, 1.9047, 1.9048, 1.9047, 1.9047, 1.9048,
(PID.TID 0000.0001) >     1.9047, 1.9047, 1.9048, 1.9047, 1.9047, 1.9048, 1.9047, 1.9047,
(PID.TID 0000.0001) >     1.9048, 1.9047, 1.9047, 1.9048, 1.9047, 1.9047, 1.9048, 1.9047,
(PID.TID 0000.0001) >     1.9047, 1.9048, 1.9047, 1.9047, 1.9048, 1.9047, 1.9047, 1.9048,
(PID.TID 0000.0001) >     1.9047, 1.9047, 1.9047, 1.9047, 1.9048, 1.9047, 1.9047, 1.9047,
(PID.TID 0000.0001) >     1.9047, 1.9047, 1.9047, 1.9047, 1.9047, 1.9047, 1.9047, 1.9046,
(PID.TID 0000.0001) >     1.9047, 1.9046, 1.9046, 1.9046, 1.9046, 1.9045, 1.9045, 1.9044,
(PID.TID 0000.0001) >     1.9042, 1.9042, 1.9039, 1.9034, 1.9024, 1.9000, 1.8888, 1.8888,
(PID.TID 0000.0001) > aqh_nlon          = 192,
(PID.TID 0000.0001) > aqh_nlat          = 94,
(PID.TID 0000.0001) >#
(PID.TID 0000.0001) > precip_lon0       = 0.00D0,
(PID.TID 0000.0001) > precip_lon_inc    = 1.875D0,
(PID.TID 0000.0001) > precip_lat0       = -88.5420D0,
(PID.TID 0000.0001) > precip_lat_inc    = 1.8888, 1.9000, 1.9024, 1.9034, 1.9039, 1.9042,
(PID.TID 0000.0001) >     1.9042, 1.9044, 1.9045, 1.9045, 1.9046, 1.9046, 1.9046, 1.9046,
(PID.TID 0000.0001) >     1.9047, 1.9046, 1.9047, 1.9047, 1.9047, 1.9047, 1.9047, 1.9047,
(PID.TID 0000.0001) >     1.9047, 1.9047, 1.9047, 1.9047, 1.9048, 1.9047, 1.9047, 1.9047,
(PID.TID 0000.0001) >     1.9047, 1.9048, 1.9047, 1.9047, 1.9048, 1.9047, 1.9047, 1.9048,
(PID.TID 0000.0001) >     1.9047, 1.9047, 1.9048, 1.9047, 1.9047, 1.9048, 1.9047, 1.9047,
(PID.TID 0000.0001) >     1.9048, 1.9047, 1.9047, 1.9048, 1.9047, 1.9047, 1.9048, 1.9047,
(PID.TID 0000.0001) >     1.9047, 1.9048, 1.9047, 1.9047, 1.9048, 1.9047, 1.9047, 1.9048,
(PID.TID 0000.0001) >     1.9047, 1.9047, 1.9047, 1.9047, 1.9048, 1.9047, 1.9047, 1.9047,
(PID.TID 0000.0001) >     1.9047, 1.9047, 1.9047, 1.9047, 1.9047, 1.9047, 1.9047, 1.9046,
(PID.TID 0000.0001) >     1.9047, 1.9046, 1.9046, 1.9046, 1.9046, 1.9045, 1.9045, 1.9044,
(PID.TID 0000.0001) >     1.9042, 1.9042, 1.9039, 1.9034, 1.9024, 1.9000, 1.8888, 1.8888,
(PID.TID 0000.0001) > precip_nlon       = 192,
(PID.TID 0000.0001) > precip_nlat       = 94,
(PID.TID 0000.0001) >#
(PID.TID 0000.0001) > uwind_lon0        = 0.00D0,
(PID.TID 0000.0001) > uwind_lon_inc     = 1.875D0,
(PID.TID 0000.0001) > uwind_lat0        = -88.5420D0,
(PID.TID 0000.0001) > uwind_lat_inc     = 1.8888, 1.9000, 1.9024, 1.9034, 1.9039, 1.9042,
(PID.TID 0000.0001) >     1.9042, 1.9044, 1.9045, 1.9045, 1.9046, 1.9046, 1.9046, 1.9046,
(PID.TID 0000.0001) >     1.9047, 1.9046, 1.9047, 1.9047, 1.9047, 1.9047, 1.9047, 1.9047,
(PID.TID 0000.0001) >     1.9047, 1.9047, 1.9047, 1.9047, 1.9048, 1.9047, 1.9047, 1.9047,
(PID.TID 0000.0001) >     1.9047, 1.9048, 1.9047, 1.9047, 1.9048, 1.9047, 1.9047, 1.9048,
(PID.TID 0000.0001) >     1.9047, 1.9047, 1.9048, 1.9047, 1.9047, 1.9048, 1.9047, 1.9047,
(PID.TID 0000.0001) >     1.9048, 1.9047, 1.9047, 1.9048, 1.9047, 1.9047, 1.9048, 1.9047,
(PID.TID 0000.0001) >     1.9047, 1.9048, 1.9047, 1.9047, 1.9048, 1.9047, 1.9047, 1.9048,
(PID.TID 0000.0001) >     1.9047, 1.9047, 1.9047, 1.9047, 1.9048, 1.9047, 1.9047, 1.9047,
(PID.TID 0000.0001) >     1.9047, 1.9047, 1.9047, 1.9047, 1.9047, 1.9047, 1.9047, 1.9046,
(PID.TID 0000.0001) >     1.9047, 1.9046, 1.9046, 1.9046, 1.9046, 1.9045, 1.9045, 1.9044,
(PID.TID 0000.0001) >     1.9042, 1.9042, 1.9039, 1.9034, 1.9024, 1.9000, 1.8888, 1.8888,
(PID.TID 0000.0001) > uwind_nlon        = 192,
(PID.TID 0000.0001) > uwind_nlat        = 94,
(PID.TID 0000.0001) >#
(PID.TID 0000.0001) > vwind_lon0        = 0.00D0,
(PID.TID 0000.0001) > vwind_lon_inc     = 1.875D0,
(PID.TID 0000.0001) > vwind_lat0        = -88.5420D0,
(PID.TID 0000.0001) > vwind_lat_inc     = 1.8888, 1.9000, 1.9024, 1.9034, 1.9039, 1.9042,
(PID.TID 0000.0001) >     1.9042, 1.9044, 1.9045, 1.9045, 1.9046, 1.9046, 1.9046, 1.9046,
(PID.TID 0000.0001) >     1.9047, 1.9046, 1.9047, 1.9047, 1.9047, 1.9047, 1.9047, 1.9047,
(PID.TID 0000.0001) >     1.9047, 1.9047, 1.9047, 1.9047, 1.9048, 1.9047, 1.9047, 1.9047,
(PID.TID 0000.0001) >     1.9047, 1.9048, 1.9047, 1.9047, 1.9048, 1.9047, 1.9047, 1.9048,
(PID.TID 0000.0001) >     1.9047, 1.9047, 1.9048, 1.9047, 1.9047, 1.9048, 1.9047, 1.9047,
(PID.TID 0000.0001) >     1.9048, 1.9047, 1.9047, 1.9048, 1.9047, 1.9047, 1.9048, 1.9047,
(PID.TID 0000.0001) >     1.9047, 1.9048, 1.9047, 1.9047, 1.9048, 1.9047, 1.9047, 1.9048,
(PID.TID 0000.0001) >     1.9047, 1.9047, 1.9047, 1.9047, 1.9048, 1.9047, 1.9047, 1.9047,
(PID.TID 0000.0001) >     1.9047, 1.9047, 1.9047, 1.9047, 1.9047, 1.9047, 1.9047, 1.9046,
(PID.TID 0000.0001) >     1.9047, 1.9046, 1.9046, 1.9046, 1.9046, 1.9045, 1.9045, 1.9044,
(PID.TID 0000.0001) >     1.9042, 1.9042, 1.9039, 1.9034, 1.9024, 1.9000, 1.8888, 1.8888,
(PID.TID 0000.0001) > vwind_nlon        = 192,
(PID.TID 0000.0001) > vwind_nlat        = 94,
(PID.TID 0000.0001) >#
(PID.TID 0000.0001) > swdown_lon0       = 0.00D0,
(PID.TID 0000.0001) > swdown_lon_inc    = 1.875D0,
(PID.TID 0000.0001) > swdown_lat0       = -88.5420D0,
(PID.TID 0000.0001) > swdown_lat_inc    = 1.8888, 1.9000, 1.9024, 1.9034, 1.9039, 1.9042,
(PID.TID 0000.0001) >     1.9042, 1.9044, 1.9045, 1.9045, 1.9046, 1.9046, 1.9046, 1.9046,
(PID.TID 0000.0001) >     1.9047, 1.9046, 1.9047, 1.9047, 1.9047, 1.9047, 1.9047, 1.9047,
(PID.TID 0000.0001) >     1.9047, 1.9047, 1.9047, 1.9047, 1.9048, 1.9047, 1.9047, 1.9047,
(PID.TID 0000.0001) >     1.9047, 1.9048, 1.9047, 1.9047, 1.9048, 1.9047, 1.9047, 1.9048,
(PID.TID 0000.0001) >     1.9047, 1.9047, 1.9048, 1.9047, 1.9047, 1.9048, 1.9047, 1.9047,
(PID.TID 0000.0001) >     1.9048, 1.9047, 1.9047, 1.9048, 1.9047, 1.9047, 1.9048, 1.9047,
(PID.TID 0000.0001) >     1.9047, 1.9048, 1.9047, 1.9047, 1.9048, 1.9047, 1.9047, 1.9048,
(PID.TID 0000.0001) >     1.9047, 1.9047, 1.9047, 1.9047, 1.9048, 1.9047, 1.9047, 1.9047,
(PID.TID 0000.0001) >     1.9047, 1.9047, 1.9047, 1.9047, 1.9047, 1.9047, 1.9047, 1.9046,
(PID.TID 0000.0001) >     1.9047, 1.9046, 1.9046, 1.9046, 1.9046, 1.9045, 1.9045, 1.9044,
(PID.TID 0000.0001) >     1.9042, 1.9042, 1.9039, 1.9034, 1.9024, 1.9000, 1.8888, 1.8888,
(PID.TID 0000.0001) > swdown_nlon       = 192,
(PID.TID 0000.0001) > swdown_nlat       = 94,
(PID.TID 0000.0001) >#
(PID.TID 0000.0001) > lwdown_lon0       = 0.00D0,
(PID.TID 0000.0001) > lwdown_lon_inc    = 1.875D0,
(PID.TID 0000.0001) > lwdown_lat0       = -88.5420D0,
(PID.TID 0000.0001) > lwdown_lat_inc    = 1.8888, 1.9000, 1.9024, 1.9034, 1.9039, 1.9042,
(PID.TID 0000.0001) >     1.9042, 1.9044, 1.9045, 1.9045, 1.9046, 1.9046, 1.9046, 1.9046,
(PID.TID 0000.0001) >     1.9047, 1.9046, 1.9047, 1.9047, 1.9047, 1.9047, 1.9047, 1.9047,
(PID.TID 0000.0001) >     1.9047, 1.9047, 1.9047, 1.9047, 1.9048, 1.9047, 1.9047, 1.9047,
(PID.TID 0000.0001) >     1.9047, 1.9048, 1.9047, 1.9047, 1.9048, 1.9047, 1.9047, 1.9048,
(PID.TID 0000.0001) >     1.9047, 1.9047, 1.9048, 1.9047, 1.9047, 1.9048, 1.9047, 1.9047,
(PID.TID 0000.0001) >     1.9048, 1.9047, 1.9047, 1.9048, 1.9047, 1.9047, 1.9048, 1.9047,
(PID.TID 0000.0001) >     1.9047, 1.9048, 1.9047, 1.9047, 1.9048, 1.9047, 1.9047, 1.9048,
(PID.TID 0000.0001) >     1.9047, 1.9047, 1.9047, 1.9047, 1.9048, 1.9047, 1.9047, 1.9047,
(PID.TID 0000.0001) >     1.9047, 1.9047, 1.9047, 1.9047, 1.9047, 1.9047, 1.9047, 1.9046,
(PID.TID 0000.0001) >     1.9047, 1.9046, 1.9046, 1.9046, 1.9046, 1.9045, 1.9045, 1.9044,
(PID.TID 0000.0001) >     1.9042, 1.9042, 1.9039, 1.9034, 1.9024, 1.9000, 1.8888, 1.8888,
(PID.TID 0000.0001) > lwdown_nlon       = 192,
(PID.TID 0000.0001) > lwdown_nlat       = 94,
(PID.TID 0000.0001) >#
(PID.TID 0000.0001) > apressure_lon0       = 0.00D0,
(PID.TID 0000.0001) > apressure_lon_inc    = 1.875D0,
(PID.TID 0000.0001) > apressure_lat0       = -88.5420D0,
(PID.TID 0000.0001) > apressure_lat_inc    = 1.8888, 1.9000, 1.9024, 1.9034, 1.9039, 1.9042,
(PID.TID 0000.0001) >     1.9042, 1.9044, 1.9045, 1.9045, 1.9046, 1.9046, 1.9046, 1.9046,
(PID.TID 0000.0001) >     1.9047, 1.9046, 1.9047, 1.9047, 1.9047, 1.9047, 1.9047, 1.9047,
(PID.TID 0000.0001) >     1.9047, 1.9047, 1.9047, 1.9047, 1.9048, 1.9047, 1.9047, 1.9047,
(PID.TID 0000.0001) >     1.9047, 1.9048, 1.9047, 1.9047, 1.9048, 1.9047, 1.9047, 1.9048,
(PID.TID 0000.0001) >     1.9047, 1.9047, 1.9048, 1.9047, 1.9047, 1.9048, 1.9047, 1.9047,
(PID.TID 0000.0001) >     1.9048, 1.9047, 1.9047, 1.9048, 1.9047, 1.9047, 1.9048, 1.9047,
(PID.TID 0000.0001) >     1.9047, 1.9048, 1.9047, 1.9047, 1.9048, 1.9047, 1.9047, 1.9048,
(PID.TID 0000.0001) >     1.9047, 1.9047, 1.9047, 1.9047, 1.9048, 1.9047, 1.9047, 1.9047,
(PID.TID 0000.0001) >     1.9047, 1.9047, 1.9047, 1.9047, 1.9047, 1.9047, 1.9047, 1.9046,
(PID.TID 0000.0001) >     1.9047, 1.9046, 1.9046, 1.9046, 1.9046, 1.9045, 1.9045, 1.9044,
(PID.TID 0000.0001) >     1.9042, 1.9042, 1.9039, 1.9034, 1.9024, 1.9000, 1.8888, 1.8888,
(PID.TID 0000.0001) > apressure_nlon       = 192,
(PID.TID 0000.0001) > apressure_nlat       = 94,
(PID.TID 0000.0001) > /
(PID.TID 0000.0001) 
(PID.TID 0000.0001) EXF_READPARMS: reading EXF_NML_01
(PID.TID 0000.0001) EXF_READPARMS: reading EXF_NML_02
(PID.TID 0000.0001) EXF_READPARMS: reading EXF_NML_03
(PID.TID 0000.0001) EXF_READPARMS: reading EXF_NML_04
(PID.TID 0000.0001) EXF_READPARMS: finished reading data.exf
(PID.TID 0000.0001)  GGL90_READPARMS: opening data.ggl90
(PID.TID 0000.0001)  OPEN_COPY_DATA_FILE: opening file data.ggl90
(PID.TID 0000.0001) // =======================================================
(PID.TID 0000.0001) // Parameter file "data.ggl90"
(PID.TID 0000.0001) // =======================================================
(PID.TID 0000.0001) ># =====================================================================
(PID.TID 0000.0001) ># | Parameters for Gaspar et al. (1990)'s TKE vertical mixing scheme  |
(PID.TID 0000.0001) ># =====================================================================
(PID.TID 0000.0001) > &GGL90_PARM01
(PID.TID 0000.0001) ># GGL90dumpFreq = 86400.,
(PID.TID 0000.0001) ># GGL90writeState=.FALSE.,
(PID.TID 0000.0001) ># GGL90diffTKEh=3.e3,
(PID.TID 0000.0001) > GGL90alpha=30.,
(PID.TID 0000.0001) ># GGL90TKEFile = 'TKE_init.bin',
(PID.TID 0000.0001) > GGL90TKEmin  = 1.e-7,
(PID.TID 0000.0001) > GGL90TKEbottom = 1.e-6,
(PID.TID 0000.0001) > mxlMaxFlag =2,
(PID.TID 0000.0001) > mxlSurfFlag=.TRUE.,
(PID.TID 0000.0001) > /
(PID.TID 0000.0001) 
(PID.TID 0000.0001)  GGL90_READPARMS ; starts to read GGL90_PARM01
(PID.TID 0000.0001)  GGL90_READPARMS: read GGL90_PARM01 : OK
(PID.TID 0000.0001)  GGL90_READPARMS: finished reading data.ggl90
(PID.TID 0000.0001) // =======================================================
(PID.TID 0000.0001) // GGL90 configuration
(PID.TID 0000.0001) // =======================================================
(PID.TID 0000.0001) GGL90dumpFreq =   /* GGL90 state write out interval ( s ). */
(PID.TID 0000.0001)                 0.000000000000000E+00
(PID.TID 0000.0001)     ;
(PID.TID 0000.0001) GGL90mixingMAPS =   /* GGL90 IO flag */
(PID.TID 0000.0001)                   F
(PID.TID 0000.0001)     ;
(PID.TID 0000.0001) GGL90writeState =   /* GGL90 IO flag */
(PID.TID 0000.0001)                   F
(PID.TID 0000.0001)     ;
(PID.TID 0000.0001) GGL90ck =   /* GGL90 viscosity parameter */
(PID.TID 0000.0001)                 1.000000000000000E-01
(PID.TID 0000.0001)     ;
(PID.TID 0000.0001) GGL90ceps =   /* GGL90 dissipation parameter */
(PID.TID 0000.0001)                 7.000000000000000E-01
(PID.TID 0000.0001)     ;
(PID.TID 0000.0001) GGL90alpha =   /* GGL90 TKE diffusivity parameter */
(PID.TID 0000.0001)                 3.000000000000000E+01
(PID.TID 0000.0001)     ;
(PID.TID 0000.0001) GGL90m2 =   /* GGL90 wind stress to vertical stress ratio */
(PID.TID 0000.0001)                 3.750000000000000E+00
(PID.TID 0000.0001)     ;
(PID.TID 0000.0001) GGL90TKEmin =   /* GGL90 minimum kinetic energy ( m^2/s^2 ) */
(PID.TID 0000.0001)                 1.000000000000000E-07
(PID.TID 0000.0001)     ;
(PID.TID 0000.0001) GGL90TKEsurfMin =   /* GGL90 minimum surface kinetic energy ( m^2/s^2 ) */
(PID.TID 0000.0001)                 1.000000000000000E-04
(PID.TID 0000.0001)     ;
(PID.TID 0000.0001) GGL90TKEbottom =   /* GGL90 bottom kinetic energy ( m^2/s^2 ) */
(PID.TID 0000.0001)                 1.000000000000000E-06
(PID.TID 0000.0001)     ;
(PID.TID 0000.0001) GGL90viscMax =   /* GGL90 upper limit for viscosity (m^2/s ) */
(PID.TID 0000.0001)                 1.000000000000000E+02
(PID.TID 0000.0001)     ;
(PID.TID 0000.0001) GGL90diffMax =   /* GGL90 upper limit for diffusivity (m^2/s ) */
(PID.TID 0000.0001)                 1.000000000000000E+02
(PID.TID 0000.0001)     ;
(PID.TID 0000.0001) GGL90diffTKEh =   /* GGL90 horizontal diffusivity for TKE ( m^2/s ) */
(PID.TID 0000.0001)                 0.000000000000000E+00
(PID.TID 0000.0001)     ;
(PID.TID 0000.0001) GGL90mixingLengthMin =   /* GGL90 minimum mixing length (m) */
(PID.TID 0000.0001)                 1.000000000000000E-08
(PID.TID 0000.0001)     ;
(PID.TID 0000.0001) mxlMaxFlag =   /* Flag for limiting mixing-length method */
(PID.TID 0000.0001)                       2
(PID.TID 0000.0001)     ;
(PID.TID 0000.0001) adMxlMaxFlag =   /* Flag for limiting mixing-length method in AD-mode */
(PID.TID 0000.0001)                       2
(PID.TID 0000.0001)     ;
(PID.TID 0000.0001) mxlSurfFlag =   /* GGL90 flag for near surface mixing */
(PID.TID 0000.0001)                   T
(PID.TID 0000.0001)     ;
(PID.TID 0000.0001) calcMeanVertShear = /* calc Mean of Vert.Shear (vs shear of Mean flow) */
(PID.TID 0000.0001)                   F
(PID.TID 0000.0001)     ;
(PID.TID 0000.0001) GGL90: GGL90TKEFile =
(PID.TID 0000.0001) GGL90_dirichlet =   /* GGL90 Boundary condition flag */
(PID.TID 0000.0001)                   T
(PID.TID 0000.0001)     ;
(PID.TID 0000.0001) // =======================================================
(PID.TID 0000.0001) // End of GGL90 config. summary
(PID.TID 0000.0001) // =======================================================
(PID.TID 0000.0001) 
(PID.TID 0000.0001)  GM_READPARMS: opening data.gmredi
(PID.TID 0000.0001)  OPEN_COPY_DATA_FILE: opening file data.gmredi
(PID.TID 0000.0001) // =======================================================
(PID.TID 0000.0001) // Parameter file "data.gmredi"
(PID.TID 0000.0001) // =======================================================
(PID.TID 0000.0001) ># GM+Redi package parameters:
(PID.TID 0000.0001) >#     GM_Small_Number  :: epsilon used in computing the slope
(PID.TID 0000.0001) >#     GM_slopeSqCutoff :: slope^2 cut-off value
(PID.TID 0000.0001) >
(PID.TID 0000.0001) >#-from MOM :
(PID.TID 0000.0001) ># GM_background_K: 	G & Mc.W  diffusion coefficient
(PID.TID 0000.0001) ># GM_maxSlope    :	max slope of isopycnals
(PID.TID 0000.0001) ># GM_Scrit       :	transition for scaling diffusion coefficient
(PID.TID 0000.0001) ># GM_Sd          :	half width scaling for diffusion coefficient
(PID.TID 0000.0001) ># GM_taper_scheme:	slope clipping or one of the tapering schemes
(PID.TID 0000.0001) ># GM_Kmin_horiz  :	horizontal diffusion minimum value
(PID.TID 0000.0001) >
(PID.TID 0000.0001) >#-Option parameters (needs to "define" options in GMREDI_OPTIONS.h")
(PID.TID 0000.0001) ># GM_isopycK     :	isopycnal diffusion coefficient (default=GM_background_K)
(PID.TID 0000.0001) ># GM_AdvForm     :	turn on GM Advective form       (default=Skew flux form)
(PID.TID 0000.0001) >
(PID.TID 0000.0001) > &GM_PARM01
(PID.TID 0000.0001) >  GM_Small_Number  = 1.D-20,
(PID.TID 0000.0001) >  GM_slopeSqCutoff = 1.D+08,
(PID.TID 0000.0001) >  GM_AdvForm         = .TRUE.,
(PID.TID 0000.0001) >  GM_isopycK         = 1.D+3,
(PID.TID 0000.0001) >  GM_background_K    = 1.D+3,
(PID.TID 0000.0001) >  GM_maxSlope        = 4.D-3,
(PID.TID 0000.0001) >  GM_taper_scheme    = 'stableGmAdjTap',
(PID.TID 0000.0001) >  GM_Kmin_horiz      = 100.,
(PID.TID 0000.0001) >  GM_Scrit           = 4.D-3,
(PID.TID 0000.0001) >  GM_Sd              = 1.D-3,
(PID.TID 0000.0001) >#
(PID.TID 0000.0001) >###  GM_Visbeck_alpha   = 1.5D-2,
(PID.TID 0000.0001) >###  GM_Visbeck_alpha   = 0.D0,
(PID.TID 0000.0001) >###  GM_Visbeck_length  = 2.D+5,
(PID.TID 0000.0001) >###  GM_Visbeck_depth   = 1.D+3,
(PID.TID 0000.0001) >###  GM_Visbeck_maxval_K= 2.5D+3,
(PID.TID 0000.0001) > /
(PID.TID 0000.0001) >
(PID.TID 0000.0001) >
(PID.TID 0000.0001) 
(PID.TID 0000.0001)  GM_READPARMS: finished reading data.gmredi
(PID.TID 0000.0001) 
(PID.TID 0000.0001)  SEAICE_READPARMS: opening data.seaice
(PID.TID 0000.0001)  OPEN_COPY_DATA_FILE: opening file data.seaice
(PID.TID 0000.0001) // =======================================================
(PID.TID 0000.0001) // Parameter file "data.seaice"
(PID.TID 0000.0001) // =======================================================
(PID.TID 0000.0001) ># SEAICE parameters
(PID.TID 0000.0001) > &SEAICE_PARM01
(PID.TID 0000.0001) >#here I take the fields from pickup.seaice.previous.data that
(PID.TID 0000.0001) >#came out of experiment 2 ("relax") part 4 to initialize part 5
(PID.TID 0000.0001) >      AreaFile='siAREA.ini',
(PID.TID 0000.0001) >      HeffFile='siHEFF.ini',
(PID.TID 0000.0001) >      HsnowFile='siHSNOW.ini',
(PID.TID 0000.0001) >      uIceFile='siUICE.ini',
(PID.TID 0000.0001) >      vIceFile='siVICE.ini',
(PID.TID 0000.0001) >#the following is needed to recover old default values
(PID.TID 0000.0001) >#since PR116 (https://github.com/MITgcm/MITgcm/pull/116)
(PID.TID 0000.0001) >      SEAICE_drag=0.002,
(PID.TID 0000.0001) >      SEAICE_waterDrag=0.005344995140913508357982664,
(PID.TID 0000.0001) >      SEAICEetaZmethod=0,
(PID.TID 0000.0001) >      SEAICEscaleSurfStress=.FALSE.,
(PID.TID 0000.0001) >      SEAICEaddSnowMass=.FALSE.,
(PID.TID 0000.0001) >      SEAICE_OLx=0,
(PID.TID 0000.0001) >      SEAICE_OLy=0,
(PID.TID 0000.0001) >#
(PID.TID 0000.0001) >      SEAICEuseTILT=.FALSE.,
(PID.TID 0000.0001) >      SEAICEpresH0=2.,
(PID.TID 0000.0001) >      SEAICEpresPow0=1,
(PID.TID 0000.0001) >      SEAICEpresPow1=1,
(PID.TID 0000.0001) >      SEAICE_strength = 2.25e4,
(PID.TID 0000.0001) >      SEAICE_multDim=1,
(PID.TID 0000.0001) >      SEAICErestoreUnderIce=.TRUE.,
(PID.TID 0000.0001) >      SEAICE_area_max=0.97,
(PID.TID 0000.0001) >      SEAICE_salt0=4.,
(PID.TID 0000.0001) >      LSR_ERROR          = 2.e-4,
(PID.TID 0000.0001) >      SEAICEuseDYNAMICS  = .TRUE.,
(PID.TID 0000.0001) >      MIN_ATEMP          = -40.,
(PID.TID 0000.0001) >      MIN_TICE           = -40.,
(PID.TID 0000.0001) >      SEAICEadvScheme    = 30,
(PID.TID 0000.0001) >      SEAICEuseFluxForm = .TRUE.,
(PID.TID 0000.0001) >      SEAICEadvSnow      = .TRUE.,
(PID.TID 0000.0001) >#      SEAICEadvSalt      = .TRUE.,
(PID.TID 0000.0001) >      SEAICEdiffKhHeff   = 400.,
(PID.TID 0000.0001) >      SEAICEdiffKhArea   = 400.,
(PID.TID 0000.0001) >      SEAICEdiffKhSnow   = 400.,
(PID.TID 0000.0001) >#      SEAICEdiffKhSalt   = 400.,
(PID.TID 0000.0001) >      SEAICEuseFlooding  = .TRUE.,
(PID.TID 0000.0001) >      SEAICE_mcPheePiston= 3.858024691358025E-05,
(PID.TID 0000.0001) >      SEAICE_frazilFrac  = 1.,
(PID.TID 0000.0001) >      SEAICE_mcPheeTaper = 0.,
(PID.TID 0000.0001) >      SEAICE_areaLossFormula=2,
(PID.TID 0000.0001) >      SEAICEheatConsFix  = .TRUE.,
(PID.TID 0000.0001) >      SEAICE_tempFrz0    = -1.96,
(PID.TID 0000.0001) >      SEAICE_dTempFrz_dS = 0.,
(PID.TID 0000.0001) >      SEAICEuseMetricTerms = .TRUE.,
(PID.TID 0000.0001) >      SEAICE_no_slip     = .TRUE.,
(PID.TID 0000.0001) >      SEAICE_clipVelocities = .TRUE.,
(PID.TID 0000.0001) > /
(PID.TID 0000.0001) >#
(PID.TID 0000.0001) > &SEAICE_PARM02
(PID.TID 0000.0001) > /
(PID.TID 0000.0001) >
(PID.TID 0000.0001) 
(PID.TID 0000.0001)  SEAICE_READPARMS: finished reading data.seaice
(PID.TID 0000.0001) SALT_PLUME_READPARMS: opening data.salt_plume
(PID.TID 0000.0001)  OPEN_COPY_DATA_FILE: opening file data.salt_plume
(PID.TID 0000.0001) // =======================================================
(PID.TID 0000.0001) // Parameter file "data.salt_plume"
(PID.TID 0000.0001) // =======================================================
(PID.TID 0000.0001) > &SALT_PLUME_PARM01
(PID.TID 0000.0001) ># SaltPlumeCriterion = 0.4D0,
(PID.TID 0000.0001) > SPsalFRAC= 0.5D0,
(PID.TID 0000.0001) >#SPsalFRAC= 0.25D0,
(PID.TID 0000.0001) >#SPsalFRAC= 0.0D0,
(PID.TID 0000.0001) > /
(PID.TID 0000.0001) 
(PID.TID 0000.0001) SALT_PLUME_READPARMS: finished reading data.salt_plume
(PID.TID 0000.0001) AUTODIFF_READPARMS: opening data.autodiff
(PID.TID 0000.0001)  OPEN_COPY_DATA_FILE: opening file data.autodiff
(PID.TID 0000.0001) // =======================================================
(PID.TID 0000.0001) // Parameter file "data.autodiff"
(PID.TID 0000.0001) // =======================================================
(PID.TID 0000.0001) ># =========================
(PID.TID 0000.0001) ># pkg AUTODIFF parameters :
(PID.TID 0000.0001) ># =========================
(PID.TID 0000.0001) >#  inAdExact :: get an exact adjoint (no approximation) (def=.True.)
(PID.TID 0000.0001) >#
(PID.TID 0000.0001) > &AUTODIFF_PARM01
(PID.TID 0000.0001) ># inAdExact = .FALSE.,
(PID.TID 0000.0001) ># useSEAICEinAdMode = .FALSE.,
(PID.TID 0000.0001) ># useKPPinAdMode = .FALSE.,
(PID.TID 0000.0001) ># useGMRediInAdMode = .FALSE.,
(PID.TID 0000.0001) > useGGL90inAdMode = .FALSE.,
(PID.TID 0000.0001) > useSALT_PLUMEinAdMode = .FALSE.,
(PID.TID 0000.0001) > /
(PID.TID 0000.0001) 
(PID.TID 0000.0001) AUTODIFF_READPARMS: finished reading data.autodiff
(PID.TID 0000.0001) // ===================================
(PID.TID 0000.0001) // AUTODIFF parameters :
(PID.TID 0000.0001) // ===================================
(PID.TID 0000.0001) inAdExact = /* get an exact adjoint (no approximation) */
(PID.TID 0000.0001)                   T
(PID.TID 0000.0001)     ;
(PID.TID 0000.0001) useApproxAdvectionInAdMode = /* approximate AD-advection */
(PID.TID 0000.0001)                   F
(PID.TID 0000.0001)     ;
(PID.TID 0000.0001) cg2dFullAdjoint = /* use full hand written cg2d adjoint (no approximation) */
(PID.TID 0000.0001)                   F
(PID.TID 0000.0001)     ;
(PID.TID 0000.0001) useKPPinAdMode = /* use KPP in adjoint mode */
(PID.TID 0000.0001)                   F
(PID.TID 0000.0001)     ;
(PID.TID 0000.0001) useGMRediInAdMode = /* use GMRedi in adjoint mode */
(PID.TID 0000.0001)                   T
(PID.TID 0000.0001)     ;
(PID.TID 0000.0001) useSEAICEinAdMode = /* use SEAICE in adjoint mode */
(PID.TID 0000.0001)                   T
(PID.TID 0000.0001)     ;
(PID.TID 0000.0001) useGGL90inAdMode = /* use GGL90 in adjoint mode */
(PID.TID 0000.0001)                   F
(PID.TID 0000.0001)     ;
(PID.TID 0000.0001) useSALT_PLUMEinAdMode = /* use SALT_PLUME in adjoint mode */
(PID.TID 0000.0001)                   F
(PID.TID 0000.0001)     ;
(PID.TID 0000.0001) SEAICEuseDYNAMICSswitchInAd = /* switch On/Off SEAICE Dyn in AD mode */
(PID.TID 0000.0001)                   F
(PID.TID 0000.0001)     ;
(PID.TID 0000.0001) SEAICEuseFREEDRIFTswitchInAd= /* switch On/Off Free-Drift in AD mode */
(PID.TID 0000.0001)                   F
(PID.TID 0000.0001)     ;
(PID.TID 0000.0001) SEAICEapproxLevInAd = /* -1:SEAICE_FAKE, >0:other adjoint approximation */
(PID.TID 0000.0001)                       0
(PID.TID 0000.0001)     ;
(PID.TID 0000.0001) dumpAdVarExch = /* control adexch before dumpinp */
(PID.TID 0000.0001)                       2
(PID.TID 0000.0001)     ;
(PID.TID 0000.0001) mon_AdVarExch = /* control adexch before monitor */
(PID.TID 0000.0001)                       2
(PID.TID 0000.0001)     ;
(PID.TID 0000.0001) viscFacInFw = /* viscosity factor for forward model */
(PID.TID 0000.0001)                 1.000000000000000E+00
(PID.TID 0000.0001)     ;
(PID.TID 0000.0001) viscFacInAd = /* viscosity factor for adjoint */
(PID.TID 0000.0001)                 1.000000000000000E+00
(PID.TID 0000.0001)     ;
(PID.TID 0000.0001) SIregFacInAd = /* sea ice factor for adjoint model */
(PID.TID 0000.0001)                 1.234567000000000E+05
(PID.TID 0000.0001)     ;
(PID.TID 0000.0001) SIregFacInFw = /* sea ice factor for forward model */
(PID.TID 0000.0001)                 1.234567000000000E+05
(PID.TID 0000.0001)     ;
(PID.TID 0000.0001) 
(PID.TID 0000.0001) OPTIM_READPARMS: opening data.optim
(PID.TID 0000.0001)  OPEN_COPY_DATA_FILE: opening file data.optim
(PID.TID 0000.0001) // =======================================================
(PID.TID 0000.0001) // Parameter file "data.optim"
(PID.TID 0000.0001) // =======================================================
(PID.TID 0000.0001) >#
(PID.TID 0000.0001) ># ********************************
(PID.TID 0000.0001) ># Off-line optimization parameters
(PID.TID 0000.0001) ># ********************************
(PID.TID 0000.0001) > &OPTIM
(PID.TID 0000.0001) > optimcycle=0,
(PID.TID 0000.0001) > /
(PID.TID 0000.0001) 
(PID.TID 0000.0001) OPTIM_READPARMS: finished reading data.optim
(PID.TID 0000.0001) CTRL_READPARMS: opening data.ctrl
(PID.TID 0000.0001)  OPEN_COPY_DATA_FILE: opening file data.ctrl
(PID.TID 0000.0001) // =======================================================
(PID.TID 0000.0001) // Parameter file "data.ctrl"
(PID.TID 0000.0001) // =======================================================
(PID.TID 0000.0001) ># **********************
(PID.TID 0000.0001) ># ECCO control variables
(PID.TID 0000.0001) ># **********************
(PID.TID 0000.0001) > &ctrl_nml
(PID.TID 0000.0001) > doSinglePrecTapelev=.TRUE.,
(PID.TID 0000.0001) > /
(PID.TID 0000.0001) >#
(PID.TID 0000.0001) ># *********************
(PID.TID 0000.0001) ># names for ctrl_pack/unpack
(PID.TID 0000.0001) ># *********************
(PID.TID 0000.0001) > &ctrl_packnames
(PID.TID 0000.0001) > /
(PID.TID 0000.0001) >#
(PID.TID 0000.0001) ># *********************
(PID.TID 0000.0001) ># names for CTRL_GENARR2D,3D CTRL_GENTIM2D
(PID.TID 0000.0001) ># *********************
(PID.TID 0000.0001) > &CTRL_NML_GENARR
(PID.TID 0000.0001) > xx_gentim2d_weight(1) = 'wt_atemp.data',
(PID.TID 0000.0001) > xx_gentim2d_file(1)='xx_atempA',
(PID.TID 0000.0001) > xx_gentim2d_period(1)=7200.0,
(PID.TID 0000.0001) > xx_gentim2d_preproc(1,1)='docycle',
(PID.TID 0000.0001) > xx_gentim2d_preproc_i(1,1)=1,
(PID.TID 0000.0001) > xx_gentim2d_preproc(2,1)='WC01',
(PID.TID 0000.0001) > mult_gentim2d(1) = 0.,
(PID.TID 0000.0001) >#
(PID.TID 0000.0001) > xx_gentim2d_weight(2) = 'wt_atemp.data',
(PID.TID 0000.0001) > xx_gentim2d_file(2)='xx_atempB',
(PID.TID 0000.0001) > xx_gentim2d_period(2)=7200.0,
(PID.TID 0000.0001) > xx_gentim2d_preproc(1,2)='docycle',
(PID.TID 0000.0001) > xx_gentim2d_preproc_i(1,2)=2,
(PID.TID 0000.0001) > xx_gentim2d_preproc(2,2)='rmcycle',
(PID.TID 0000.0001) > xx_gentim2d_preproc_i(2,2)=1,
(PID.TID 0000.0001) > xx_gentim2d_preproc(3,2)='WC01',
(PID.TID 0000.0001) > mult_gentim2d(2) = 0.,
(PID.TID 0000.0001) >#
(PID.TID 0000.0001) > xx_gentim2d_weight(3) = 'wt_atemp.data',
(PID.TID 0000.0001) > xx_gentim2d_file(3)='xx_atempC',
(PID.TID 0000.0001) > xx_gentim2d_period(3)=7200.0,
(PID.TID 0000.0001) > xx_gentim2d_preproc(1,3)='rmcycle',
(PID.TID 0000.0001) > xx_gentim2d_preproc_i(1,3)=2,
(PID.TID 0000.0001) > xx_gentim2d_preproc(2,3)='WC01',
(PID.TID 0000.0001) > mult_gentim2d(3) = 0.,
(PID.TID 0000.0001) >#
(PID.TID 0000.0001) > xx_genarr3d_weight(1) = 'wt_theta.data',
(PID.TID 0000.0001) > xx_genarr3d_file(1)='xx_theta',
(PID.TID 0000.0001) > xx_genarr3d_bounds(1:5,1)=-2.0,-1.9,39.,40.,0.,
(PID.TID 0000.0001) > mult_genarr3d(1) = 0.,
(PID.TID 0000.0001) >#
(PID.TID 0000.0001) > xx_genarr3d_weight(2) = 'wt_salt.data',
(PID.TID 0000.0001) > xx_genarr3d_file(2)='xx_salt',
(PID.TID 0000.0001) > xx_genarr3d_bounds(1:5,2)=29.,29.5,40.5,41.,0.,
(PID.TID 0000.0001) > mult_genarr3d(2) = 0.,
(PID.TID 0000.0001) >#
(PID.TID 0000.0001) > xx_genarr3d_weight(3) = 'wt_kapgm.data',
(PID.TID 0000.0001) > xx_genarr3d_file(3)='xx_kapgm',
(PID.TID 0000.0001) > xx_genarr3d_bounds(1:5,3)=1.E2,2.E2,0.9E4,1.E4,0.,
(PID.TID 0000.0001) > mult_genarr3d(3) = 0.,
(PID.TID 0000.0001) >#
(PID.TID 0000.0001) > /
(PID.TID 0000.0001) >
(PID.TID 0000.0001) 
(PID.TID 0000.0001) CTRL_READPARMS: finished reading data.ctrl
(PID.TID 0000.0001) read-write ctrl files from current run directory
(PID.TID 0000.0001) COST_READPARMS: opening data.cost
(PID.TID 0000.0001)  OPEN_COPY_DATA_FILE: opening file data.cost
(PID.TID 0000.0001) // =======================================================
(PID.TID 0000.0001) // Parameter file "data.cost"
(PID.TID 0000.0001) // =======================================================
(PID.TID 0000.0001) >#
(PID.TID 0000.0001) >#
(PID.TID 0000.0001) ># ******************
(PID.TID 0000.0001) ># cost function
(PID.TID 0000.0001) ># ******************
(PID.TID 0000.0001) > &COST_NML
(PID.TID 0000.0001) > /
(PID.TID 0000.0001) 
(PID.TID 0000.0001) COST_READPARMS: finished reading data.cost
(PID.TID 0000.0001) // =======================================================
(PID.TID 0000.0001) // cost configuration  >>> START <<<
(PID.TID 0000.0001) // =======================================================
(PID.TID 0000.0001) lastinterval =   /* cost interval over which to average ( s ). */
(PID.TID 0000.0001)                 2.592000000000000E+06
(PID.TID 0000.0001)     ;
(PID.TID 0000.0001) cost_mask_file = /* file name of cost mask file */
(PID.TID 0000.0001)               ''
(PID.TID 0000.0001)     ;
(PID.TID 0000.0001) // =======================================================
(PID.TID 0000.0001) // cost configuration  >>> END <<<
(PID.TID 0000.0001) // =======================================================
(PID.TID 0000.0001) 
(PID.TID 0000.0001) GRDCHK_READPARMS: opening data.grdchk
(PID.TID 0000.0001)  OPEN_COPY_DATA_FILE: opening file data.grdchk
(PID.TID 0000.0001) // =======================================================
(PID.TID 0000.0001) // Parameter file "data.grdchk"
(PID.TID 0000.0001) // =======================================================
(PID.TID 0000.0001) ># *******************
(PID.TID 0000.0001) ># ECCO gradient check
(PID.TID 0000.0001) ># *******************
(PID.TID 0000.0001) > &GRDCHK_NML
(PID.TID 0000.0001) > grdchk_eps       = 1.d-2,
(PID.TID 0000.0001) >#  iglopos         = 6,
(PID.TID 0000.0001) >#  jglopos         = 17,
(PID.TID 0000.0001) >#  kglopos         = 1,
(PID.TID 0000.0001) > nbeg             = 1,
(PID.TID 0000.0001) > nstep            = 1,
(PID.TID 0000.0001) > nend             = 4,
(PID.TID 0000.0001) > grdchkvarname    = "xx_atempA",
(PID.TID 0000.0001) > /
(PID.TID 0000.0001) 
(PID.TID 0000.0001) GRDCHK_READPARMS: finished reading data.grdchk
(PID.TID 0000.0001) SMOOTH_READPARMS: opening data.smooth
(PID.TID 0000.0001)  OPEN_COPY_DATA_FILE: opening file data.smooth
(PID.TID 0000.0001) // =======================================================
(PID.TID 0000.0001) // Parameter file "data.smooth"
(PID.TID 0000.0001) // =======================================================
(PID.TID 0000.0001) > &SMOOTH_NML
(PID.TID 0000.0001) ># caution : if you edit this file you may
(PID.TID 0000.0001) ># need to replace smooth2*norm001 accordingly
(PID.TID 0000.0001) > smooth2Dnbt(1)=30
(PID.TID 0000.0001) > smooth2Dtype(1)=1
(PID.TID 0000.0001) > smooth2Dsize(1)=2
(PID.TID 0000.0001) > smooth2Dfilter(1)=0
(PID.TID 0000.0001) > smooth3Dnbt(1)=30
(PID.TID 0000.0001) > smooth3DtypeH(1)=1
(PID.TID 0000.0001) > smooth3DsizeH(1)=3
(PID.TID 0000.0001) > smooth3DtypeZ(1)=1
(PID.TID 0000.0001) > smooth3DsizeZ(1)=3
(PID.TID 0000.0001) > smooth3Dfilter(1)=0
(PID.TID 0000.0001) > /
(PID.TID 0000.0001) 
(PID.TID 0000.0001) SMOOTH_READPARMS: finished reading data.smooth
(PID.TID 0000.0001) // =======================================================
(PID.TID 0000.0001) // pkg/smooth configuration
(PID.TID 0000.0001) // =======================================================
(PID.TID 0000.0001) smooth 2D parameters:  1    30    0.    0.maskC
(PID.TID 0000.0001) smooth 3D parameters:  1    30    0.    0.    0.maskC
(PID.TID 0000.0001) // =======================================================
(PID.TID 0000.0001) // End of pkg/smooth config. summary
(PID.TID 0000.0001) // =======================================================
(PID.TID 0000.0001) 
(PID.TID 0000.0001) ECCO_READPARMS: opening data.ecco
(PID.TID 0000.0001)  OPEN_COPY_DATA_FILE: opening file data.ecco
(PID.TID 0000.0001) // =======================================================
(PID.TID 0000.0001) // Parameter file "data.ecco"
(PID.TID 0000.0001) // =======================================================
(PID.TID 0000.0001) ># *******************
(PID.TID 0000.0001) ># ECCO cost functions
(PID.TID 0000.0001) ># *******************
(PID.TID 0000.0001) > &ECCO_COST_NML
(PID.TID 0000.0001) > ecco_output_sterGloH=.TRUE.,
(PID.TID 0000.0001) > ecco_keepTSeriesOutp_open=.TRUE.,
(PID.TID 0000.0001) > /
(PID.TID 0000.0001) >
(PID.TID 0000.0001) ># ***************************
(PID.TID 0000.0001) ># ECCO generic cost functions
(PID.TID 0000.0001) ># ***************************
(PID.TID 0000.0001) > &ECCO_GENCOST_NML
(PID.TID 0000.0001) > gencost_avgperiod(1)  = 'step',
(PID.TID 0000.0001) ># gencost_avgperiod(1)  = 'month',
(PID.TID 0000.0001) > gencost_barfile(1) = 'etastep',
(PID.TID 0000.0001) > gencost_datafile(1) = 'some_eta_step.bin',
(PID.TID 0000.0001) > gencost_errfile(1) = 'some_eta_sigma.bin',
(PID.TID 0000.0001) > gencost_name(1) = 'etastep',
(PID.TID 0000.0001) > gencost_spmin(1) = -999.,
(PID.TID 0000.0001) > gencost_spmax(1) = 999.,
(PID.TID 0000.0001) > gencost_spzero(1) = 0.,
(PID.TID 0000.0001) ># note : clim * preproc_i(1) = nTimeSteps <=> noclim
(PID.TID 0000.0001) > gencost_preproc(1,1)='clim',
(PID.TID 0000.0001) > gencost_preproc_i(1,1)=9,
(PID.TID 0000.0001) > gencost_posproc(1,1)='smooth',
(PID.TID 0000.0001) > gencost_posproc_c(1,1)='some_scale.bin',
(PID.TID 0000.0001) > gencost_posproc_i(1,1)=10,
(PID.TID 0000.0001) > gencost_outputlevel(1)=1,
(PID.TID 0000.0001) > mult_gencost(1) = 1.,
(PID.TID 0000.0001) >#
(PID.TID 0000.0001) > gencost_avgperiod(2)  = 'step',
(PID.TID 0000.0001) ># gencost_avgperiod(2)  = 'month',
(PID.TID 0000.0001) > gencost_barfile(2) = 'sststep',
(PID.TID 0000.0001) > gencost_datafile(2) = 'some_sst_step.bin',
(PID.TID 0000.0001) > gencost_errfile(2) = 'some_sst_sigma.bin',
(PID.TID 0000.0001) > gencost_name(2) = 'sststep',
(PID.TID 0000.0001) > gencost_spmin(2) = -999.,
(PID.TID 0000.0001) > gencost_spmax(2) = 999.,
(PID.TID 0000.0001) > gencost_spzero(2) = 0.,
(PID.TID 0000.0001) > gencost_posproc(1,2)='smooth',
(PID.TID 0000.0001) > gencost_posproc_c(1,2)='some_scale.bin',
(PID.TID 0000.0001) > gencost_posproc_i(1,2)=10,
(PID.TID 0000.0001) > gencost_outputlevel(2)=1,
(PID.TID 0000.0001) > mult_gencost(2) = 1.,
(PID.TID 0000.0001) >#
(PID.TID 0000.0001) > /
(PID.TID 0000.0001) 
(PID.TID 0000.0001) ECCO_READPARMS: finished reading #1: ecco_cost_nml
(PID.TID 0000.0001) ECCO_READPARMS: finished reading #2: ecco_gencost_nml
(PID.TID 0000.0001) ECCO_READPARMS: done
(PID.TID 0000.0001) PROFILES_READPARMS: opening data.profiles
(PID.TID 0000.0001)  OPEN_COPY_DATA_FILE: opening file data.profiles
(PID.TID 0000.0001) // =======================================================
(PID.TID 0000.0001) // Parameter file "data.profiles"
(PID.TID 0000.0001) // =======================================================
(PID.TID 0000.0001) >#
(PID.TID 0000.0001) ># ******************
(PID.TID 0000.0001) ># PROFILES cost function
(PID.TID 0000.0001) ># ******************
(PID.TID 0000.0001) > &PROFILES_NML
(PID.TID 0000.0001) > profilesDoGenGrid=.TRUE.,
(PID.TID 0000.0001) > profilesDir='profiles',
(PID.TID 0000.0001) >#
(PID.TID 0000.0001) > profilesfiles(1)= 'some_TS_atlas.sortedInTime',
(PID.TID 0000.0001) > mult_profiles(1,1)   = 1.,
(PID.TID 0000.0001) > mult_profiles(1,2)   = 1.,
(PID.TID 0000.0001) >#
(PID.TID 0000.0001) > /
(PID.TID 0000.0001) 
(PID.TID 0000.0001) PROFILES_READPARMS: finished reading data.profiles
(PID.TID 0000.0001) SET_PARMS: done
==> SYSTEM CALL (from AUTODIFF_INI_MODEL_IO): > mkdir -p tapes <
==> SYSTEM CALL (from PROFILES_INI_IO): > mkdir -p profiles <
(PID.TID 0000.0001) Enter INI_VERTICAL_GRID: setInterFDr=    T ; setCenterDr=    F
(PID.TID 0000.0001) tile:   1 ; Read from file grid_cs32.face001.bin
(PID.TID 0000.0001)   => xC yC dxF dyF rA xG yG dxV dyU rAz dxC dyC rAw rAs dxG dyG AngleCS AngleSN
(PID.TID 0000.0001) tile:   2 ; Read from file grid_cs32.face001.bin
(PID.TID 0000.0001)   => xC yC dxF dyF rA xG yG dxV dyU rAz dxC dyC rAw rAs dxG dyG AngleCS AngleSN
(PID.TID 0000.0001) tile:   3 ; Read from file grid_cs32.face001.bin
(PID.TID 0000.0001)   => xC yC dxF dyF rA xG yG dxV dyU rAz dxC dyC rAw rAs dxG dyG AngleCS AngleSN
(PID.TID 0000.0001) %MON XC_max                       =   1.7854351589505E+02
(PID.TID 0000.0001) %MON XC_min                       =  -1.7854351589505E+02
(PID.TID 0000.0001) %MON XC_mean                      =   2.0724163126336E-15
(PID.TID 0000.0001) %MON XC_sd                        =   1.0355545336287E+02
(PID.TID 0000.0001) %MON XG_max                       =   1.8000000000000E+02
(PID.TID 0000.0001) %MON XG_min                       =  -1.7708797161002E+02
(PID.TID 0000.0001) %MON XG_mean                      =   1.8603515625000E+00
(PID.TID 0000.0001) %MON XG_sd                        =   1.0357130300504E+02
(PID.TID 0000.0001) %MON DXC_max                      =   3.2375185836900E+05
(PID.TID 0000.0001) %MON DXC_min                      =   1.1142031410131E+05
(PID.TID 0000.0001) %MON DXC_mean                     =   2.8605689051214E+05
(PID.TID 0000.0001) %MON DXC_sd                       =   3.4042087138252E+04
(PID.TID 0000.0001) %MON DXF_max                      =   3.2369947500827E+05
(PID.TID 0000.0001) %MON DXF_min                      =   1.2020820513318E+05
(PID.TID 0000.0001) %MON DXF_mean                     =   2.8605437324820E+05
(PID.TID 0000.0001) %MON DXF_sd                       =   3.4050524252539E+04
(PID.TID 0000.0001) %MON DXG_max                      =   3.2375195872773E+05
(PID.TID 0000.0001) %MON DXG_min                      =   1.0098378008791E+05
(PID.TID 0000.0001) %MON DXG_mean                     =   2.8603818508931E+05
(PID.TID 0000.0001) %MON DXG_sd                       =   3.4140406908005E+04
(PID.TID 0000.0001) %MON DXV_max                      =   3.2380418162750E+05
(PID.TID 0000.0001) %MON DXV_min                      =   8.0152299824136E+04
(PID.TID 0000.0001) %MON DXV_mean                     =   2.8603970633619E+05
(PID.TID 0000.0001) %MON DXV_sd                       =   3.4145142117723E+04
(PID.TID 0000.0001) %MON YC_max                       =   8.7940663871962E+01
(PID.TID 0000.0001) %MON YC_min                       =  -8.7940663871962E+01
(PID.TID 0000.0001) %MON YC_mean                      =   1.1842378929335E-15
(PID.TID 0000.0001) %MON YC_sd                        =   3.8676242969072E+01
(PID.TID 0000.0001) %MON YG_max                       =   9.0000000000000E+01
(PID.TID 0000.0001) %MON YG_min                       =  -9.0000000000000E+01
(PID.TID 0000.0001) %MON YG_mean                      =   2.9605947323338E-15
(PID.TID 0000.0001) %MON YG_sd                        =   3.8676895860710E+01
(PID.TID 0000.0001) %MON DYC_max                      =   3.2375185836900E+05
(PID.TID 0000.0001) %MON DYC_min                      =   1.1142031410131E+05
(PID.TID 0000.0001) %MON DYC_mean                     =   2.8605689051214E+05
(PID.TID 0000.0001) %MON DYC_sd                       =   3.4042087138252E+04
(PID.TID 0000.0001) %MON DYF_max                      =   3.2369947500827E+05
(PID.TID 0000.0001) %MON DYF_min                      =   1.2020820513318E+05
(PID.TID 0000.0001) %MON DYF_mean                     =   2.8605437324820E+05
(PID.TID 0000.0001) %MON DYF_sd                       =   3.4050524252539E+04
(PID.TID 0000.0001) %MON DYG_max                      =   3.2375195872773E+05
(PID.TID 0000.0001) %MON DYG_min                      =   1.0098378008791E+05
(PID.TID 0000.0001) %MON DYG_mean                     =   2.8603818508931E+05
(PID.TID 0000.0001) %MON DYG_sd                       =   3.4140406908005E+04
(PID.TID 0000.0001) %MON DYU_max                      =   3.2380418162750E+05
(PID.TID 0000.0001) %MON DYU_min                      =   8.0152299824136E+04
(PID.TID 0000.0001) %MON DYU_mean                     =   2.8603970633619E+05
(PID.TID 0000.0001) %MON DYU_sd                       =   3.4145142117723E+04
(PID.TID 0000.0001) %MON RA_max                       =   1.0479260248419E+11
(PID.TID 0000.0001) %MON RA_min                       =   1.4019007022556E+10
(PID.TID 0000.0001) %MON RA_mean                      =   8.2992246709265E+10
(PID.TID 0000.0001) %MON RA_sd                        =   1.7509089299457E+10
(PID.TID 0000.0001) %MON RAW_max                      =   1.0480965274559E+11
(PID.TID 0000.0001) %MON RAW_min                      =   1.2166903467143E+10
(PID.TID 0000.0001) %MON RAW_mean                     =   8.2992246709235E+10
(PID.TID 0000.0001) %MON RAW_sd                       =   1.7481917919656E+10
(PID.TID 0000.0001) %MON RAS_max                      =   1.0480965274559E+11
(PID.TID 0000.0001) %MON RAS_min                      =   1.2166903467143E+10
(PID.TID 0000.0001) %MON RAS_mean                     =   8.2992246709235E+10
(PID.TID 0000.0001) %MON RAS_sd                       =   1.7481917919656E+10
(PID.TID 0000.0001) %MON RAZ_max                      =   1.0484349334619E+11
(PID.TID 0000.0001) %MON RAZ_min                      =   8.8317900612505E+09
(PID.TID 0000.0001) %MON RAZ_mean                     =   8.2992246709235E+10
(PID.TID 0000.0001) %MON RAZ_sd                       =   1.7482297311044E+10
(PID.TID 0000.0001) %MON AngleCS_max                  =   9.9999994756719E-01
(PID.TID 0000.0001) %MON AngleCS_min                  =  -9.9968286884824E-01
(PID.TID 0000.0001) %MON AngleCS_mean                 =   3.3078850405987E-01
(PID.TID 0000.0001) %MON AngleCS_sd                   =   6.2496317138039E-01
(PID.TID 0000.0001) %MON AngleSN_max                  =   9.9968286884824E-01
(PID.TID 0000.0001) %MON AngleSN_min                  =  -9.9999994756719E-01
(PID.TID 0000.0001) %MON AngleSN_mean                 =  -3.3078850405987E-01
(PID.TID 0000.0001) %MON AngleSN_sd                   =   6.2496317138039E-01
(PID.TID 0000.0001) 
(PID.TID 0000.0001) // =======================================================
(PID.TID 0000.0001) // Calendar configuration >>> START <<<
(PID.TID 0000.0001) // =======================================================
(PID.TID 0000.0001) 
(PID.TID 0000.0001) modelstart = /* Start time of the model integration [s] */
(PID.TID 0000.0001)                 0.000000000000000E+00
(PID.TID 0000.0001)     ;
(PID.TID 0000.0001) modelend  = /* End time of the model integration [s] */
(PID.TID 0000.0001)                 2.880000000000000E+04
(PID.TID 0000.0001)     ;
(PID.TID 0000.0001) modelStep = /* Time interval for a model forward step [s] */
(PID.TID 0000.0001)                 3.600000000000000E+03
(PID.TID 0000.0001)     ;
(PID.TID 0000.0001) usingGregorianCalendar= /* Calendar Type: Gregorian Calendar */
(PID.TID 0000.0001)                   T
(PID.TID 0000.0001)     ;
(PID.TID 0000.0001) usingJulianCalendar = /* Calendar Type: Julian Calendar */
(PID.TID 0000.0001)                   F
(PID.TID 0000.0001)     ;
(PID.TID 0000.0001) usingNoLeapYearCal  = /* Calendar Type: without Leap Year */
(PID.TID 0000.0001)                   F
(PID.TID 0000.0001)     ;
(PID.TID 0000.0001) usingModelCalendar  = /* Calendar Type: Model Calendar */
(PID.TID 0000.0001)                   F
(PID.TID 0000.0001)     ;
(PID.TID 0000.0001) modelStartDate YYYYMMDD = /* Model start date YYYY-MM-DD */
(PID.TID 0000.0001)                19480101
(PID.TID 0000.0001)     ;
(PID.TID 0000.0001)   modelStartDate HHMMSS = /* Model start date HH-MM-SS  */
(PID.TID 0000.0001)                  120000
(PID.TID 0000.0001)     ;
(PID.TID 0000.0001) modelEndDate   YYYYMMDD = /* Model end date YYYY-MM-DD */
(PID.TID 0000.0001)                19480101
(PID.TID 0000.0001)     ;
(PID.TID 0000.0001)   modelEndDate   HHMMSS = /* Model end date HH-MM-SS  */
(PID.TID 0000.0001)                  200000
(PID.TID 0000.0001)     ;
(PID.TID 0000.0001) intyears = /* Number of calendar years affected by the integration */
(PID.TID 0000.0001)                       1
(PID.TID 0000.0001)     ;
(PID.TID 0000.0001) intmonths= /* Number of calendar months affected by the integration */
(PID.TID 0000.0001)                       1
(PID.TID 0000.0001)     ;
(PID.TID 0000.0001) intdays = /* Number of calendar days affected by the integration */
(PID.TID 0000.0001)                       1
(PID.TID 0000.0001)     ;
(PID.TID 0000.0001) modelIter0 = /* Base timestep number  */
(PID.TID 0000.0001)                       0
(PID.TID 0000.0001)     ;
(PID.TID 0000.0001) modelIterEnd = /* Final timestep number  */
(PID.TID 0000.0001)                       8
(PID.TID 0000.0001)     ;
(PID.TID 0000.0001) modelIntSteps= /* Number of model timesteps  */
(PID.TID 0000.0001)                       8
(PID.TID 0000.0001)     ;
(PID.TID 0000.0001) 
(PID.TID 0000.0001) // =======================================================
(PID.TID 0000.0001) // Calendar configuration  >>> END <<<
(PID.TID 0000.0001) // =======================================================
(PID.TID 0000.0001) 
(PID.TID 0000.0001) GAD_INIT_FIXED: GAD_OlMinSize=  2  0  2
(PID.TID 0000.0001) 
(PID.TID 0000.0001) // ===================================
(PID.TID 0000.0001) // GAD parameters :
(PID.TID 0000.0001) // ===================================
(PID.TID 0000.0001) tempAdvScheme =   /* Temp. Horiz.Advection scheme selector */
(PID.TID 0000.0001)                      30
(PID.TID 0000.0001)     ;
(PID.TID 0000.0001) tempVertAdvScheme =   /* Temp. Vert. Advection scheme selector */
(PID.TID 0000.0001)                       3
(PID.TID 0000.0001)     ;
(PID.TID 0000.0001) tempMultiDimAdvec =   /* use Muti-Dim Advec method for Temp */
(PID.TID 0000.0001)                   T
(PID.TID 0000.0001)     ;
(PID.TID 0000.0001) tempSOM_Advection = /* use 2nd Order Moment Advection for Temp */
(PID.TID 0000.0001)                   F
(PID.TID 0000.0001)     ;
(PID.TID 0000.0001) AdamsBashforthGt = /* apply Adams-Bashforth extrapolation on Gt */
(PID.TID 0000.0001)                   F
(PID.TID 0000.0001)     ;
(PID.TID 0000.0001) AdamsBashforth_T = /* apply Adams-Bashforth extrapolation on Temp */
(PID.TID 0000.0001)                   F
(PID.TID 0000.0001)     ;
(PID.TID 0000.0001) saltAdvScheme =   /* Salt. Horiz.advection scheme selector */
(PID.TID 0000.0001)                      30
(PID.TID 0000.0001)     ;
(PID.TID 0000.0001) saltVertAdvScheme =   /* Salt. Vert. Advection scheme selector */
(PID.TID 0000.0001)                       3
(PID.TID 0000.0001)     ;
(PID.TID 0000.0001) saltMultiDimAdvec =   /* use Muti-Dim Advec method for Salt */
(PID.TID 0000.0001)                   T
(PID.TID 0000.0001)     ;
(PID.TID 0000.0001) saltSOM_Advection = /* use 2nd Order Moment Advection for Salt */
(PID.TID 0000.0001)                   F
(PID.TID 0000.0001)     ;
(PID.TID 0000.0001) AdamsBashforthGs = /* apply Adams-Bashforth extrapolation on Gs */
(PID.TID 0000.0001)                   F
(PID.TID 0000.0001)     ;
(PID.TID 0000.0001) AdamsBashforth_S = /* apply Adams-Bashforth extrapolation on Salt */
(PID.TID 0000.0001)                   F
(PID.TID 0000.0001)     ;
(PID.TID 0000.0001) // ===================================
(PID.TID 0000.0001) 
(PID.TID 0000.0001) // =======================================================
(PID.TID 0000.0001) // External forcing (EXF) configuration >>> START <<<
(PID.TID 0000.0001) // =======================================================
(PID.TID 0000.0001) 
(PID.TID 0000.0001)  EXF general parameters:
(PID.TID 0000.0001) 
(PID.TID 0000.0001) exf_iprec = /* exf file precision */
(PID.TID 0000.0001)                      32
(PID.TID 0000.0001)     ;
(PID.TID 0000.0001) useExfYearlyFields = /* add extension _YEAR to input file names */
(PID.TID 0000.0001)                   F
(PID.TID 0000.0001)     ;
(PID.TID 0000.0001) twoDigitYear = /* use 2-digit year extension */
(PID.TID 0000.0001)                   F
(PID.TID 0000.0001)     ;
(PID.TID 0000.0001) useExfCheckRange = /* check for fields range */
(PID.TID 0000.0001)                   F
(PID.TID 0000.0001)     ;
(PID.TID 0000.0001) exf_output_interp = /* output directly interpolation result */
(PID.TID 0000.0001)                   F
(PID.TID 0000.0001)     ;
(PID.TID 0000.0001) diags_opOceWeighted = /* weight flux diags by open-ocean fraction */
(PID.TID 0000.0001)                   T
(PID.TID 0000.0001)     ;
(PID.TID 0000.0001) exf_debugLev = /* select EXF-debug printing level */
(PID.TID 0000.0001)                       1
(PID.TID 0000.0001)     ;
(PID.TID 0000.0001) exf_monFreq  = /* EXF monitor frequency [ s ] */
(PID.TID 0000.0001)                 7.200000000000000E+03
(PID.TID 0000.0001)     ;
(PID.TID 0000.0001) exf_adjMonSelect = /* select group of exf AD-variables to monitor */
(PID.TID 0000.0001)                       1
(PID.TID 0000.0001)     ;
(PID.TID 0000.0001) repeatPeriod = /* period for cycling forcing dataset [ s ] */
(PID.TID 0000.0001)                 3.153600000000000E+07
(PID.TID 0000.0001)     ;
(PID.TID 0000.0001) climTempFreeze= /* Minimum climatological temperature [deg.C] */
(PID.TID 0000.0001)                -1.900000000000000E+00
(PID.TID 0000.0001)     ;
(PID.TID 0000.0001) windStressMax = /* Maximum absolute windstress [ Pa ] */
(PID.TID 0000.0001)                 2.000000000000000E+00
(PID.TID 0000.0001)     ;
(PID.TID 0000.0001) stressIsOnCgrid = /* set u,v_stress on Arakawa C-grid */
(PID.TID 0000.0001)                   F
(PID.TID 0000.0001)     ;
(PID.TID 0000.0001) rotateStressOnAgrid = /* rotate u,v_stress on Arakawa A-grid */
(PID.TID 0000.0001)                   F
(PID.TID 0000.0001)     ;
(PID.TID 0000.0001) cen2kel = /* conversion of deg. Centigrade to Kelvin [K] */
(PID.TID 0000.0001)                 2.731500000000000E+02
(PID.TID 0000.0001)     ;
(PID.TID 0000.0001) gravity_mks= /* gravitational acceleration [m/s^2] */
(PID.TID 0000.0001)                 9.810000000000000E+00
(PID.TID 0000.0001)     ;
(PID.TID 0000.0001) atmrho =  /* mean atmospheric density [kg/m^3] */
(PID.TID 0000.0001)                 1.220000000000000E+00
(PID.TID 0000.0001)     ;
(PID.TID 0000.0001) atmcp =  /* mean atmospheric specific heat [J/kg/K] */
(PID.TID 0000.0001)                 1.005000000000000E+03
(PID.TID 0000.0001)     ;
(PID.TID 0000.0001) flamb =  /* latent heat of evaporation [J/kg] */
(PID.TID 0000.0001)                 2.500000000000000E+06
(PID.TID 0000.0001)     ;
(PID.TID 0000.0001) flami =  /* latent heat of pure-ice melting [J/kg] */
(PID.TID 0000.0001)                 3.340000000000000E+05
(PID.TID 0000.0001)     ;
(PID.TID 0000.0001) cvapor_fac = /* const. for Saturation calculation [?] */
(PID.TID 0000.0001)                 6.403800000000000E+05
(PID.TID 0000.0001)     ;
(PID.TID 0000.0001) cvapor_exp = /* const. for Saturation calculation [?] */
(PID.TID 0000.0001)                 5.107400000000000E+03
(PID.TID 0000.0001)     ;
(PID.TID 0000.0001) cvapor_fac_ice= /* const. for Saturation calculation [?] */
(PID.TID 0000.0001)                 1.163780000000000E+07
(PID.TID 0000.0001)     ;
(PID.TID 0000.0001) cvapor_exp_ice= /* const. for Saturation calculation [?] */
(PID.TID 0000.0001)                 5.897800000000000E+03
(PID.TID 0000.0001)     ;
(PID.TID 0000.0001) humid_fac = /* humidity coef. in virtual temp. [(kg/kg)^-1] */
(PID.TID 0000.0001)                 6.080000000000000E-01
(PID.TID 0000.0001)     ;
(PID.TID 0000.0001) gamma_blk = /* adiabatic lapse rate [?] */
(PID.TID 0000.0001)                 1.000000000000000E-02
(PID.TID 0000.0001)     ;
(PID.TID 0000.0001) saltsat = /* reduction of Qsat over salty water [-] */
(PID.TID 0000.0001)                 9.800000000000000E-01
(PID.TID 0000.0001)     ;
(PID.TID 0000.0001) noNegativeEvap = /* prevent negative Evaporation */
(PID.TID 0000.0001)                   F
(PID.TID 0000.0001)     ;
(PID.TID 0000.0001) sstExtrapol = /* extrapolation coeff from lev. 1 & 2 to surf [-] */
(PID.TID 0000.0001)                 0.000000000000000E+00
(PID.TID 0000.0001)     ;
(PID.TID 0000.0001) cDrag_1 = /* coef used in drag calculation [m/s] */
(PID.TID 0000.0001)                 2.700000000000000E-03
(PID.TID 0000.0001)     ;
(PID.TID 0000.0001) cDrag_2 = /* coef used in drag calculation [-] */
(PID.TID 0000.0001)                 1.420000000000000E-04
(PID.TID 0000.0001)     ;
(PID.TID 0000.0001) cDrag_3 = /* coef used in drag calculation [s/m] */
(PID.TID 0000.0001)                 7.640000000000000E-05
(PID.TID 0000.0001)     ;
(PID.TID 0000.0001) cDrag_8 = /* coef used in drag calculation [(s/m)^6] */
(PID.TID 0000.0001)                 1.234567000000000E+05
(PID.TID 0000.0001)     ;
(PID.TID 0000.0001) cDragMax = /* maximum drag (Large and Yeager, 2009) [-] */
(PID.TID 0000.0001)                 1.234567000000000E+05
(PID.TID 0000.0001)     ;
(PID.TID 0000.0001) umax = /* at maximum wind (Large and Yeager, 2009) [m/s] */
(PID.TID 0000.0001)                 1.234567000000000E+05
(PID.TID 0000.0001)     ;
(PID.TID 0000.0001) cStanton_1 = /* coef used in Stanton number calculation [-] */
(PID.TID 0000.0001)                 3.270000000000000E-02
(PID.TID 0000.0001)     ;
(PID.TID 0000.0001) cStanton_2 = /* coef used in Stanton number calculation [-] */
(PID.TID 0000.0001)                 1.800000000000000E-02
(PID.TID 0000.0001)     ;
(PID.TID 0000.0001) cDalton = /* Dalton number [-] */
(PID.TID 0000.0001)                 3.460000000000000E-02
(PID.TID 0000.0001)     ;
(PID.TID 0000.0001) exf_scal_BulkCdn= /* Drag coefficient scaling factor [-] */
(PID.TID 0000.0001)                 1.000000000000000E+00
(PID.TID 0000.0001)     ;
(PID.TID 0000.0001) zolmin = /* minimum stability parameter [?] */
(PID.TID 0000.0001)                -1.000000000000000E+02
(PID.TID 0000.0001)     ;
(PID.TID 0000.0001) psim_fac = /* coef used in turbulent fluxes calculation [-] */
(PID.TID 0000.0001)                 5.000000000000000E+00
(PID.TID 0000.0001)     ;
(PID.TID 0000.0001) zref =  /* reference height [ m ] */
(PID.TID 0000.0001)                 1.000000000000000E+01
(PID.TID 0000.0001)     ;
(PID.TID 0000.0001) hu =  /* height of mean wind [ m ] */
(PID.TID 0000.0001)                 1.000000000000000E+01
(PID.TID 0000.0001)     ;
(PID.TID 0000.0001) ht =  /* height of mean temperature [ m ] */
(PID.TID 0000.0001)                 1.000000000000000E+01
(PID.TID 0000.0001)     ;
(PID.TID 0000.0001) hq =  /* height of mean spec.humidity [ m ] */
(PID.TID 0000.0001)                 1.000000000000000E+01
(PID.TID 0000.0001)     ;
(PID.TID 0000.0001) uMin = /* minimum wind speed [m/s] */
(PID.TID 0000.0001)                 5.000000000000000E-01
(PID.TID 0000.0001)     ;
(PID.TID 0000.0001) useStabilityFct_overIce= /* transfert Coeffs over sea-ice depend on stability */
(PID.TID 0000.0001)                   F
(PID.TID 0000.0001)     ;
(PID.TID 0000.0001) exf_iceCd = /* drag coefficient over sea-ice (fixed) [-] */
(PID.TID 0000.0001)                 1.630000000000000E-03
(PID.TID 0000.0001)     ;
(PID.TID 0000.0001) exf_iceCe = /* transfert coeff. over sea-ice, for Evap (fixed) [-] */
(PID.TID 0000.0001)                 1.630000000000000E-03
(PID.TID 0000.0001)     ;
(PID.TID 0000.0001) exf_iceCh = /* transfert coeff. over sea-ice, Sens.Heat.(fixed)[-] */
(PID.TID 0000.0001)                 1.630000000000000E-03
(PID.TID 0000.0001)     ;
(PID.TID 0000.0001) exf_albedo =  /* Sea-water albedo [-] */
(PID.TID 0000.0001)                 6.600000000000000E-02
(PID.TID 0000.0001)     ;
(PID.TID 0000.0001) useExfZenAlbedo = /* Sea-water albedo varies with zenith angle */
(PID.TID 0000.0001)                   F
(PID.TID 0000.0001)     ;
(PID.TID 0000.0001) select_ZenAlbedo = /* Sea-water albedo computation method */
(PID.TID 0000.0001)                       0
(PID.TID 0000.0001)     ;
(PID.TID 0000.0001) useExfZenIncoming = /* compute incoming solar radiation */
(PID.TID 0000.0001)                   F
(PID.TID 0000.0001)     ;
(PID.TID 0000.0001) ocean_emissivity = /* longwave ocean-surface emissivity [-] */
(PID.TID 0000.0001)                 1.000000000000000E+00
(PID.TID 0000.0001)     ;
(PID.TID 0000.0001) ice_emissivity = /* longwave seaice emissivity [-] */
(PID.TID 0000.0001)                 9.500000000000000E-01
(PID.TID 0000.0001)     ;
(PID.TID 0000.0001) snow_emissivity = /* longwave snow  emissivity [-] */
(PID.TID 0000.0001)                 9.500000000000000E-01
(PID.TID 0000.0001)     ;
(PID.TID 0000.0001) 
(PID.TID 0000.0001)  EXF main CPP flags:
(PID.TID 0000.0001) 
(PID.TID 0000.0001) // USE_EXF_INTERPOLATION:              defined
(PID.TID 0000.0001) // ALLOW_ATM_TEMP:                     defined
(PID.TID 0000.0001) // ALLOW_ATM_WIND (useAtmWind):        defined
(PID.TID 0000.0001) // ALLOW_DOWNWARD_RADIATION:           defined
(PID.TID 0000.0001) // ALLOW_BULKFORMULAE:                 defined
(PID.TID 0000.0001) 
(PID.TID 0000.0001)    Zonal wind forcing starts at                  -31568400.
(PID.TID 0000.0001)    Zonal wind forcing period is                      21600.
(PID.TID 0000.0001)    Zonal wind forcing repeat-cycle is             31536000.
(PID.TID 0000.0001)    Zonal wind forcing is read from file:
(PID.TID 0000.0001)    >> CORE2_u10m_6hrly_r2_cnyf <<
(PID.TID 0000.0001)    interpolate "uwind" (method= 12 ):
(PID.TID 0000.0001)    lon0=   0.00000, nlon=   192, lon_inc= 1.8750000
(PID.TID 0000.0001)    lat0= -88.54200, nlat=    94, inc(min,max)= 1.88880 1.90480
(PID.TID 0000.0001) 
(PID.TID 0000.0001)    Meridional wind forcing starts at             -31568400.
(PID.TID 0000.0001)    Meridional wind forcing period is                 21600.
(PID.TID 0000.0001)    Meridional wind forcing repeat-cycle is        31536000.
(PID.TID 0000.0001)    Meridional wind forcing is read from file:
(PID.TID 0000.0001)    >> CORE2_v10m_6hrly_r2_cnyf <<
(PID.TID 0000.0001)    interpolate "vwind" (method= 22 ):
(PID.TID 0000.0001)    lon0=   0.00000, nlon=   192, lon_inc= 1.8750000
(PID.TID 0000.0001)    lat0= -88.54200, nlat=    94, inc(min,max)= 1.88880 1.90480
(PID.TID 0000.0001)     Interp. U & V comp. together: uvInterp_wind =    T
(PID.TID 0000.0001) 
(PID.TID 0000.0001)    Atmospheric temperature starts at             -31568400.
(PID.TID 0000.0001)    Atmospheric temperature period is                 21600.
(PID.TID 0000.0001)    Atmospheric temperature repeat-cycle is        31536000.
(PID.TID 0000.0001)    Atmospheric temperature is read from file:
(PID.TID 0000.0001)    >> CORE2_tmp10m_6hrly_r2_cnyf <<
(PID.TID 0000.0001)    interpolate "atemp" (method=  1 ):
(PID.TID 0000.0001)    lon0=   0.00000, nlon=   192, lon_inc= 1.8750000
(PID.TID 0000.0001)    lat0= -88.54200, nlat=    94, inc(min,max)= 1.88880 1.90480
(PID.TID 0000.0001) 
(PID.TID 0000.0001)    Atmospheric specific humidity starts at       -31568400.
(PID.TID 0000.0001)    Atmospheric specific humidity period is           21600.
(PID.TID 0000.0001)    Atmospheric specific humidity rep-cycle is     31536000.
(PID.TID 0000.0001)    Atmospheric specific humidity is read from file:
(PID.TID 0000.0001)    >> CORE2_spfh10m_6hrly_r2_cnyf <<
(PID.TID 0000.0001)    interpolate "aqh" (method=  1 ):
(PID.TID 0000.0001)    lon0=   0.00000, nlon=   192, lon_inc= 1.8750000
(PID.TID 0000.0001)    lat0= -88.54200, nlat=    94, inc(min,max)= 1.88880 1.90480
(PID.TID 0000.0001) 
(PID.TID 0000.0001) // ALLOW_READ_TURBFLUXES:          NOT defined
(PID.TID 0000.0001) // EXF_READ_EVAP:                  NOT defined
(PID.TID 0000.0001) 
(PID.TID 0000.0001)    Precipitation data starts at                  -30326400.
(PID.TID 0000.0001)    Precipitation data period is                    2628000.
(PID.TID 0000.0001)    Precipitation data repeat-cycle is             31536000.
(PID.TID 0000.0001)    Precipitation data is read from file:
(PID.TID 0000.0001)    >> CORE2_rain_monthly_r2_cnyf <<
(PID.TID 0000.0001)    interpolate "precip" (method=  1 ):
(PID.TID 0000.0001)    lon0=   0.00000, nlon=   192, lon_inc= 1.8750000
(PID.TID 0000.0001)    lat0= -88.54200, nlat=    94, inc(min,max)= 1.88880 1.90480
(PID.TID 0000.0001) 
(PID.TID 0000.0001) // ALLOW_RUNOFF:                       defined
(PID.TID 0000.0001) // ALLOW_RUNOFTEMP:                NOT defined
(PID.TID 0000.0001) // ALLOW_SALTFLX:                      defined
(PID.TID 0000.0001) 
(PID.TID 0000.0001)    Downward shortwave flux starts at             -31536000.
(PID.TID 0000.0001)    Downward shortwave flux period is                 86400.
(PID.TID 0000.0001)    Downward shortwave flux repeat-cycle is        31536000.
(PID.TID 0000.0001)    Downward shortwave flux is read from file:
(PID.TID 0000.0001)    >> CORE2_dsw_daily_r2_cnyf <<
(PID.TID 0000.0001)    interpolate "swdown" (method=  1 ):
(PID.TID 0000.0001)    lon0=   0.00000, nlon=   192, lon_inc= 1.8750000
(PID.TID 0000.0001)    lat0= -88.54200, nlat=    94, inc(min,max)= 1.88880 1.90480
(PID.TID 0000.0001) 
(PID.TID 0000.0001)    Downward longwave flux starts at              -31536000.
(PID.TID 0000.0001)    Downward longwave flux period is                  86400.
(PID.TID 0000.0001)    Downward longwave flux repeat-cycle is         31536000.
(PID.TID 0000.0001)    Downward longwave flux is read from file:
(PID.TID 0000.0001)    >> CORE2_dlw_daily_r2_cnyf <<
(PID.TID 0000.0001)    interpolate "lwdown" (method=  1 ):
(PID.TID 0000.0001)    lon0=   0.00000, nlon=   192, lon_inc= 1.8750000
(PID.TID 0000.0001)    lat0= -88.54200, nlat=    94, inc(min,max)= 1.88880 1.90480
(PID.TID 0000.0001) 
(PID.TID 0000.0001) // =======================================================
(PID.TID 0000.0001) // External forcing (EXF) climatology configuration :
(PID.TID 0000.0001) // =======================================================
(PID.TID 0000.0001) 
(PID.TID 0000.0001) // ALLOW_CLIMSST_RELAXATION:           defined
(PID.TID 0000.0001)    climsst relaxation is NOT used
(PID.TID 0000.0001) 
(PID.TID 0000.0001) // ALLOW_CLIMSSS_RELAXATION:           defined
(PID.TID 0000.0001)    Climatological SSS period is                        -12.
(PID.TID 0000.0001)    Climatological SSS is read from file:
(PID.TID 0000.0001)    >> some_SSS_atlas.bin <<
(PID.TID 0000.0001)    assume "climsss" on model-grid (no interpolation)
(PID.TID 0000.0001) 
(PID.TID 0000.0001) // =======================================================
(PID.TID 0000.0001) // External forcing (EXF) configuration  >>> END <<<
(PID.TID 0000.0001) // =======================================================
(PID.TID 0000.0001) 
(PID.TID 0000.0001) 
(PID.TID 0000.0001) // =======================================================
(PID.TID 0000.0001) // insitu profiles model sampling >>> START <<<
(PID.TID 0000.0001) // =======================================================
(PID.TID 0000.0001) 
(PID.TID 0000.0001) 
(PID.TID 0000.0001)   profilesDir profiles/
(PID.TID 0000.0001)   profilesDoGenGrid      T
(PID.TID 0000.0001)   profilesDoNcOutput     F
(PID.TID 0000.0001) 
(PID.TID 0000.0001) 
(PID.TID 0000.0001) profiles file #  1 is some_TS_atlas.sortedInTime
(PID.TID 0000.0001)   current tile is bi,bj                      =   1,   1
(PID.TID 0000.0001)   # of depth levels in file                  =       50
(PID.TID 0000.0001)   # of profiles in file                      =     4420
(PID.TID 0000.0001)   # of profiles with erroneous HHMMSS values =        0
(PID.TID 0000.0001)   # of profiles within tile and time period  =      237
(PID.TID 0000.0001)   variable #  1 is            prof_T and theta
(PID.TID 0000.0001)   variable #  2 is            prof_S and salt
(PID.TID 0000.0001) NF_MESSAGE: PROFILES_INIT_FIXED: NF_INQ_VARID prof_names = empty  1  1 NetCDF: Variable not found
(PID.TID 0000.0001) S/R PROFILES_INIT_FIXED: no empty, setting corresponding vec_quantities = F
(PID.TID 0000.0001) NF_MESSAGE: PROFILES_INIT_FIXED: NF_INQ_VARID prof_names = empty  1  1 NetCDF: Variable not found
(PID.TID 0000.0001) S/R PROFILES_INIT_FIXED: no empty, setting corresponding vec_quantities = F
(PID.TID 0000.0001) NF_MESSAGE: PROFILES_INIT_FIXED: NF_INQ_VARID prof_names = empty  1  1 NetCDF: Variable not found
(PID.TID 0000.0001) S/R PROFILES_INIT_FIXED: no empty, setting corresponding vec_quantities = F
(PID.TID 0000.0001) NF_MESSAGE: PROFILES_INIT_FIXED: NF_INQ_VARID prof_names = empty  1  1 NetCDF: Variable not found
(PID.TID 0000.0001) S/R PROFILES_INIT_FIXED: no empty, setting corresponding vec_quantities = F
(PID.TID 0000.0001) 
(PID.TID 0000.0001) profiles file #  1 is some_TS_atlas.sortedInTime
(PID.TID 0000.0001)   current tile is bi,bj                      =   2,   1
(PID.TID 0000.0001)   # of depth levels in file                  =       50
(PID.TID 0000.0001)   # of profiles in file                      =     4420
(PID.TID 0000.0001)   # of profiles with erroneous HHMMSS values =        0
(PID.TID 0000.0001)   # of profiles within tile and time period  =      152
(PID.TID 0000.0001)   variable #  1 is            prof_T and theta
(PID.TID 0000.0001)   variable #  2 is            prof_S and salt
(PID.TID 0000.0001) NF_MESSAGE: PROFILES_INIT_FIXED: NF_INQ_VARID prof_names = empty  2  1 NetCDF: Variable not found
(PID.TID 0000.0001) S/R PROFILES_INIT_FIXED: no empty, setting corresponding vec_quantities = F
(PID.TID 0000.0001) NF_MESSAGE: PROFILES_INIT_FIXED: NF_INQ_VARID prof_names = empty  2  1 NetCDF: Variable not found
(PID.TID 0000.0001) S/R PROFILES_INIT_FIXED: no empty, setting corresponding vec_quantities = F
(PID.TID 0000.0001) NF_MESSAGE: PROFILES_INIT_FIXED: NF_INQ_VARID prof_names = empty  2  1 NetCDF: Variable not found
(PID.TID 0000.0001) S/R PROFILES_INIT_FIXED: no empty, setting corresponding vec_quantities = F
(PID.TID 0000.0001) NF_MESSAGE: PROFILES_INIT_FIXED: NF_INQ_VARID prof_names = empty  2  1 NetCDF: Variable not found
(PID.TID 0000.0001) S/R PROFILES_INIT_FIXED: no empty, setting corresponding vec_quantities = F
(PID.TID 0000.0001) 
(PID.TID 0000.0001) profiles file #  1 is some_TS_atlas.sortedInTime
(PID.TID 0000.0001)   current tile is bi,bj                      =   3,   1
(PID.TID 0000.0001)   # of depth levels in file                  =       50
(PID.TID 0000.0001)   # of profiles in file                      =     4420
(PID.TID 0000.0001)   # of profiles with erroneous HHMMSS values =        0
(PID.TID 0000.0001)   # of profiles within tile and time period  =      205
(PID.TID 0000.0001)   variable #  1 is            prof_T and theta
(PID.TID 0000.0001)   variable #  2 is            prof_S and salt
(PID.TID 0000.0001) NF_MESSAGE: PROFILES_INIT_FIXED: NF_INQ_VARID prof_names = empty  3  1 NetCDF: Variable not found
(PID.TID 0000.0001) S/R PROFILES_INIT_FIXED: no empty, setting corresponding vec_quantities = F
(PID.TID 0000.0001) NF_MESSAGE: PROFILES_INIT_FIXED: NF_INQ_VARID prof_names = empty  3  1 NetCDF: Variable not found
(PID.TID 0000.0001) S/R PROFILES_INIT_FIXED: no empty, setting corresponding vec_quantities = F
(PID.TID 0000.0001) NF_MESSAGE: PROFILES_INIT_FIXED: NF_INQ_VARID prof_names = empty  3  1 NetCDF: Variable not found
(PID.TID 0000.0001) S/R PROFILES_INIT_FIXED: no empty, setting corresponding vec_quantities = F
(PID.TID 0000.0001) NF_MESSAGE: PROFILES_INIT_FIXED: NF_INQ_VARID prof_names = empty  3  1 NetCDF: Variable not found
(PID.TID 0000.0001) S/R PROFILES_INIT_FIXED: no empty, setting corresponding vec_quantities = F
(PID.TID 0000.0001) 
(PID.TID 0000.0001) // =======================================================
(PID.TID 0000.0001) // insitu profiles model sampling >>> END <<<
(PID.TID 0000.0001) // =======================================================
(PID.TID 0000.0001) 
(PID.TID 0000.0001) // =======================================================
(PID.TID 0000.0001) // Seaice configuration (SEAICE_PARM01) >>> START <<<
(PID.TID 0000.0001) // =======================================================
(PID.TID 0000.0001) 
(PID.TID 0000.0001)    Seaice time stepping configuration   > START <
(PID.TID 0000.0001)    ----------------------------------------------
(PID.TID 0000.0001) SEAICE_deltaTtherm= /* thermodynamic timestep */
(PID.TID 0000.0001)                 3.600000000000000E+03
(PID.TID 0000.0001)     ;
(PID.TID 0000.0001) SEAICE_deltaTdyn  = /* dynamic timestep */
(PID.TID 0000.0001)                 3.600000000000000E+03
(PID.TID 0000.0001)     ;
(PID.TID 0000.0001) SEAICE_deltaTevp  = /* EVP timestep */
(PID.TID 0000.0001)                 1.234567000000000E+05
(PID.TID 0000.0001)     ;
(PID.TID 0000.0001) SEAICEuseBDF2  = /* use backw. differencing for mom. eq. */
(PID.TID 0000.0001)                   F
(PID.TID 0000.0001)     ;
(PID.TID 0000.0001) SEAICEupdateOceanStress= /* update Ocean surf. stress */
(PID.TID 0000.0001)                   T
(PID.TID 0000.0001)     ;
(PID.TID 0000.0001) SEAICErestoreUnderIce  = /* restore T and S under ice */
(PID.TID 0000.0001)                   T
(PID.TID 0000.0001)     ;
(PID.TID 0000.0001) 
(PID.TID 0000.0001)    Seaice dynamics configuration   > START <
(PID.TID 0000.0001)    ------------------------------------------
(PID.TID 0000.0001) SEAICEuseDYNAMICS = /* use dynamics */
(PID.TID 0000.0001)                   T
(PID.TID 0000.0001)     ;
(PID.TID 0000.0001) model grid type   = /* type of sea ice model grid */
(PID.TID 0000.0001)               'C-GRID'
(PID.TID 0000.0001)     ;
(PID.TID 0000.0001) SEAICEuseStrImpCpl = /* use strongly implicit coupling */
(PID.TID 0000.0001)                   F
(PID.TID 0000.0001)     ;
(PID.TID 0000.0001) SEAICEusePicardAsPrecon = /* Picard as preconditioner */
(PID.TID 0000.0001)                   F
(PID.TID 0000.0001)     ;
(PID.TID 0000.0001) SEAICEuseLSR      = /* use default Picard-LSR solver */
(PID.TID 0000.0001)                   T
(PID.TID 0000.0001)     ;
(PID.TID 0000.0001) SEAICEuseLSRflex  = /* with residual norm criterion */
(PID.TID 0000.0001)                   F
(PID.TID 0000.0001)     ;
(PID.TID 0000.0001) SEAICEuseKrylov   = /* use Picard-Krylov solver */
(PID.TID 0000.0001)                   F
(PID.TID 0000.0001)     ;
(PID.TID 0000.0001) SEAICEuseEVP      = /* use EVP solver rather than LSR */
(PID.TID 0000.0001)                   F
(PID.TID 0000.0001)     ;
(PID.TID 0000.0001) SEAICEuseJFNK     = /* use JFNK solver */
(PID.TID 0000.0001)                   F
(PID.TID 0000.0001)     ;
(PID.TID 0000.0001) SEAICEuseFREEDRIFT = /* use free drift solution */
(PID.TID 0000.0001)                   F
(PID.TID 0000.0001)     ;
(PID.TID 0000.0001) OCEAN_drag        = /* air-ocean drag coefficient */
(PID.TID 0000.0001)                 1.000000000000000E-03
(PID.TID 0000.0001)     ;
(PID.TID 0000.0001) SEAICE_drag       = /* air-ice drag coefficient */
(PID.TID 0000.0001)                 2.000000000000000E-03
(PID.TID 0000.0001)     ;
(PID.TID 0000.0001) SEAICE_drag_south      = /* Southern Ocean SEAICE_drag */
(PID.TID 0000.0001)                 2.000000000000000E-03
(PID.TID 0000.0001)     ;
(PID.TID 0000.0001) SEAICE_waterDrag  = /* water-ice drag (no units) */
(PID.TID 0000.0001)                 5.344995140913508E-03
(PID.TID 0000.0001)     ;
(PID.TID 0000.0001) SEAICE_waterDrag_south = /* Southern Ocean waterDrag (no units) */
(PID.TID 0000.0001)                 5.344995140913508E-03
(PID.TID 0000.0001)     ;
(PID.TID 0000.0001) SEAICEdWatMin = /* minimum linear water-ice drag (in m/s) */
(PID.TID 0000.0001)                 2.500000000000000E-01
(PID.TID 0000.0001)     ;
(PID.TID 0000.0001) SEAICEuseTilt     = /* include surface tilt in dyna. */
(PID.TID 0000.0001)                   F
(PID.TID 0000.0001)     ;
(PID.TID 0000.0001) SEAICEuseTEM      = /* use truncated ellipse rheology */
(PID.TID 0000.0001)                   F
(PID.TID 0000.0001)     ;
(PID.TID 0000.0001) SEAICE_strength   = /* sea-ice strength Pstar */
(PID.TID 0000.0001)                 2.250000000000000E+04
(PID.TID 0000.0001)     ;
(PID.TID 0000.0001) SEAICE_cStar      = /* sea-ice strength parameter cStar */
(PID.TID 0000.0001)                 2.000000000000000E+01
(PID.TID 0000.0001)     ;
(PID.TID 0000.0001) SEAICEpressReplFac= /* press. replacement method factor */
(PID.TID 0000.0001)                 1.000000000000000E+00
(PID.TID 0000.0001)     ;
(PID.TID 0000.0001) SEAICE_tensilFac  = /* sea-ice tensile strength factor */
(PID.TID 0000.0001)                 0.000000000000000E+00
(PID.TID 0000.0001)     ;
(PID.TID 0000.0001) SEAICE_tensilDepth= /* crit. depth for tensile strength */
(PID.TID 0000.0001)                 0.000000000000000E+00
(PID.TID 0000.0001)     ;
(PID.TID 0000.0001) SEAICEpresH0   = /* sea-ice strength Heff threshold */
(PID.TID 0000.0001)                 2.000000000000000E+00
(PID.TID 0000.0001)     ;
(PID.TID 0000.0001) SEAICEpresPow0 = /* exponent for Heff<SEAICEpresH0 */
(PID.TID 0000.0001)                       1
(PID.TID 0000.0001)     ;
(PID.TID 0000.0001) SEAICEpresPow1 = /* exponent for Heff>SEAICEpresH0 */
(PID.TID 0000.0001)                       1
(PID.TID 0000.0001)     ;
(PID.TID 0000.0001) SEAICEetaZmethod = /* method computing eta at Z-point */
(PID.TID 0000.0001)                       0
(PID.TID 0000.0001)     ;
(PID.TID 0000.0001) SEAICE_zetaMaxFac = /* factor for upper viscosity bound */
(PID.TID 0000.0001)                 2.500000000000000E+08
(PID.TID 0000.0001)     ;
(PID.TID 0000.0001) SEAICE_zetaMin    = /* lower bound for viscosity */
(PID.TID 0000.0001)                 0.000000000000000E+00
(PID.TID 0000.0001)     ;
(PID.TID 0000.0001) SEAICE_eccen    = /* elliptical yield curve eccent */
(PID.TID 0000.0001)                 2.000000000000000E+00
(PID.TID 0000.0001)     ;
(PID.TID 0000.0001) SEAICEstressFactor    = /* wind stress scaling factor */
(PID.TID 0000.0001)                 1.000000000000000E+00
(PID.TID 0000.0001)     ;
(PID.TID 0000.0001) SEAICE_airTurnAngle    = /* air-ice turning angle */
(PID.TID 0000.0001)                 0.000000000000000E+00
(PID.TID 0000.0001)     ;
(PID.TID 0000.0001) SEAICE_waterTurnAngle  = /* ice-water turning angle */
(PID.TID 0000.0001)                 0.000000000000000E+00
(PID.TID 0000.0001)     ;
(PID.TID 0000.0001) SEAICEuseMetricTerms = /* use metric terms */
(PID.TID 0000.0001)                   T
(PID.TID 0000.0001)     ;
(PID.TID 0000.0001) SEAICE_no_slip    = /* no slip boundary conditions */
(PID.TID 0000.0001)                   T
(PID.TID 0000.0001)     ;
(PID.TID 0000.0001) SEAICE_2ndOrderBC = /* 2nd order no slip boundary conditions */
(PID.TID 0000.0001)                   F
(PID.TID 0000.0001)     ;
(PID.TID 0000.0001) SEAICE_clipVeloctities = /* impose max. vels. */
(PID.TID 0000.0001)                   T
(PID.TID 0000.0001)     ;
(PID.TID 0000.0001) useHB87stressCoupling  = /* altern. ice-ocean stress */
(PID.TID 0000.0001)                   F
(PID.TID 0000.0001)     ;
(PID.TID 0000.0001) SEAICEscaleSurfStress  = /* scale atm. and ocean-surface stress with AREA */
(PID.TID 0000.0001)                   F
(PID.TID 0000.0001)     ;
(PID.TID 0000.0001) SEAICE_maskRHS    = /* mask RHS of solver */
(PID.TID 0000.0001)                   F
(PID.TID 0000.0001)     ;
(PID.TID 0000.0001) SEAICEaddSnowMass = /* add snow mass to seaiceMassC/U/V */
(PID.TID 0000.0001)                   F
(PID.TID 0000.0001)     ;
(PID.TID 0000.0001) LSR_mixIniGuess = /* mix free-drift sol. into LSR initial Guess */
(PID.TID 0000.0001)                       0
(PID.TID 0000.0001)     ;
(PID.TID 0000.0001) SEAICE_LSRrelaxU  = /* LSR solver: relaxation parameter */
(PID.TID 0000.0001)                 9.500000000000000E-01
(PID.TID 0000.0001)     ;
(PID.TID 0000.0001) SEAICE_LSRrelaxV  = /* LSR solver: relaxation parameter */
(PID.TID 0000.0001)                 9.500000000000000E-01
(PID.TID 0000.0001)     ;
(PID.TID 0000.0001) LSR_ERROR         = /* sets accuracy of LSR solver */
(PID.TID 0000.0001)                 2.000000000000000E-04
(PID.TID 0000.0001)     ;
(PID.TID 0000.0001) SOLV_NCHECK       = /* test interval for LSR solver */
(PID.TID 0000.0001)                       2
(PID.TID 0000.0001)     ;
(PID.TID 0000.0001) SEAICEuseMultiTileSolver = /* use full domain tri-diag solver */
(PID.TID 0000.0001)                   F
(PID.TID 0000.0001)     ;
(PID.TID 0000.0001) SEAICE_OLx = /* overlap for LSR/preconditioner */
(PID.TID 0000.0001)                       0
(PID.TID 0000.0001)     ;
(PID.TID 0000.0001) SEAICE_OLy = /* overlap for LSR/preconditioner */
(PID.TID 0000.0001)                       0
(PID.TID 0000.0001)     ;
(PID.TID 0000.0001) SEAICEnonLinIterMax = /* max. number of nonlinear solver steps */
(PID.TID 0000.0001)                       2
(PID.TID 0000.0001)     ;
(PID.TID 0000.0001) SEAICElinearIterMax = /* max. number of linear solver steps */
(PID.TID 0000.0001)                     500
(PID.TID 0000.0001)     ;
(PID.TID 0000.0001) SEAICEnonLinTol     = /* non-linear solver tolerance */
(PID.TID 0000.0001)                 0.000000000000000E+00
(PID.TID 0000.0001)     ;
(PID.TID 0000.0001) 
(PID.TID 0000.0001)    Seaice advection diffusion config,   > START <
(PID.TID 0000.0001)    -----------------------------------------------
(PID.TID 0000.0001) SEAICEmomAdvection = /* advect sea ice momentum */
(PID.TID 0000.0001)                   F
(PID.TID 0000.0001)     ;
(PID.TID 0000.0001) SEAICEadvHeff = /* advect effective ice thickness */
(PID.TID 0000.0001)                   T
(PID.TID 0000.0001)     ;
(PID.TID 0000.0001) SEAICEadvArea = /* advect fractional ice area */
(PID.TID 0000.0001)                   T
(PID.TID 0000.0001)     ;
(PID.TID 0000.0001) SEAICEadvSnow = /* advect snow layer together with ice */
(PID.TID 0000.0001)                   T
(PID.TID 0000.0001)     ;
(PID.TID 0000.0001) SEAICEmultiDimAdvection = /* multidimadvec */
(PID.TID 0000.0001)                   T
(PID.TID 0000.0001)     ;
(PID.TID 0000.0001) SEAICEadvScheme   = /* advection scheme for ice */
(PID.TID 0000.0001)                      30
(PID.TID 0000.0001)     ;
(PID.TID 0000.0001) SEAICEadvSchArea  = /* advection scheme for area */
(PID.TID 0000.0001)                      30
(PID.TID 0000.0001)     ;
(PID.TID 0000.0001) SEAICEadvSchHeff  = /* advection scheme for thickness */
(PID.TID 0000.0001)                      30
(PID.TID 0000.0001)     ;
(PID.TID 0000.0001) SEAICEadvSchSnow  = /* advection scheme for snow */
(PID.TID 0000.0001)                      30
(PID.TID 0000.0001)     ;
(PID.TID 0000.0001) SEAICEdiffKhArea  = /* diffusivity (m^2/s) for area */
(PID.TID 0000.0001)                 4.000000000000000E+02
(PID.TID 0000.0001)     ;
(PID.TID 0000.0001) SEAICEdiffKhHeff  = /* diffusivity (m^2/s) for heff */
(PID.TID 0000.0001)                 4.000000000000000E+02
(PID.TID 0000.0001)     ;
(PID.TID 0000.0001) SEAICEdiffKhSnow  = /* diffusivity (m^2/s) for snow */
(PID.TID 0000.0001)                 4.000000000000000E+02
(PID.TID 0000.0001)     ;
(PID.TID 0000.0001) DIFF1             = /* parameter used in advect.F [m/s] */
(PID.TID 0000.0001)                 0.000000000000000E+00
(PID.TID 0000.0001)     ;
(PID.TID 0000.0001) 
(PID.TID 0000.0001)    Seaice thermodynamics configuration   > START <
(PID.TID 0000.0001)    -----------------------------------------------
(PID.TID 0000.0001) SEAICE_rhoIce     = /* density of sea ice (kg/m3) */
(PID.TID 0000.0001)                 9.100000000000000E+02
(PID.TID 0000.0001)     ;
(PID.TID 0000.0001) SEAICE_rhoSnow    = /* density of snow (kg/m3) */
(PID.TID 0000.0001)                 3.300000000000000E+02
(PID.TID 0000.0001)     ;
(PID.TID 0000.0001) SEAICE_rhoAir     = /* density of air (kg/m3) */
(PID.TID 0000.0001)                 1.220000000000000E+00
(PID.TID 0000.0001)     ;
(PID.TID 0000.0001) usePW79thermodynamics  = /* default 0-layer TD */
(PID.TID 0000.0001)                   T
(PID.TID 0000.0001)     ;
(PID.TID 0000.0001) SEAICE_lhEvap     = /* latent heat of evaporation */
(PID.TID 0000.0001)                 2.500000000000000E+06
(PID.TID 0000.0001)     ;
(PID.TID 0000.0001) SEAICE_lhFusion   = /* latent heat of fusion */
(PID.TID 0000.0001)                 3.340000000000000E+05
(PID.TID 0000.0001)     ;
(PID.TID 0000.0001) SEAICE_mcPheePiston = /* turbulent flux "piston velocity" a la McPhee (m/s) */
(PID.TID 0000.0001)                 3.858024691358025E-05
(PID.TID 0000.0001)     ;
(PID.TID 0000.0001) SEAICE_mcPheeTaper = /* tapering of turbulent flux (0.< <1.) for AREA=1. */
(PID.TID 0000.0001)                 0.000000000000000E+00
(PID.TID 0000.0001)     ;
(PID.TID 0000.0001) SEAICE_mcPheeStepFunc = /* replace linear tapering with step funct. */
(PID.TID 0000.0001)                   F
(PID.TID 0000.0001)     ;
(PID.TID 0000.0001) SEAICE_frazilFrac = /* frazil (T<tempFrz) to seaice conversion rate (0.< <1.) */
(PID.TID 0000.0001)                 1.000000000000000E+00
(PID.TID 0000.0001)     ;
(PID.TID 0000.0001) SEAICE_tempFrz0   = /* freezing temp. of sea water (intercept) */
(PID.TID 0000.0001)                -1.960000000000000E+00
(PID.TID 0000.0001)     ;
(PID.TID 0000.0001) SEAICE_dTempFrz_dS= /* freezing temp. of sea water (slope) */
(PID.TID 0000.0001)                 0.000000000000000E+00
(PID.TID 0000.0001)     ;
(PID.TID 0000.0001) SEAICE_growMeltByConv  = /* grow,melt by vert. conv. */
(PID.TID 0000.0001)                   F
(PID.TID 0000.0001)     ;
(PID.TID 0000.0001) SEAICE_doOpenWaterGrowth = /* grow by open water */
(PID.TID 0000.0001)                   T
(PID.TID 0000.0001)     ;
(PID.TID 0000.0001) SEAICE_doOpenWaterMelt = /* melt by open water */
(PID.TID 0000.0001)                   F
(PID.TID 0000.0001)     ;
(PID.TID 0000.0001) SEAICE_areaGainFormula = /* ice cover gain formula (1,2)*/
(PID.TID 0000.0001)                       1
(PID.TID 0000.0001)     1=from growth by ATM
(PID.TID 0000.0001)     2=from predicted growth by ATM
(PID.TID 0000.0001)     ;
(PID.TID 0000.0001) SEAICE_areaLossFormula = /* ice cover loss formula (1,2)*/
(PID.TID 0000.0001)                       2
(PID.TID 0000.0001)     1=from all but only melt conributions by ATM and OCN
(PID.TID 0000.0001)     2=from net melt-grow>0 by ATM and OCN
(PID.TID 0000.0001)     3=from predicted melt by ATM
(PID.TID 0000.0001)     ;
(PID.TID 0000.0001) HO                = /* nominal thickness of new ice */
(PID.TID 0000.0001)                 5.000000000000000E-01
(PID.TID 0000.0001)     ;
(PID.TID 0000.0001) HO_south               = /* Southern Ocean HO */
(PID.TID 0000.0001)                 5.000000000000000E-01
(PID.TID 0000.0001)     ;
(PID.TID 0000.0001) SEAICE_area_max        = /* set to les than 1. to mimic open leads */
(PID.TID 0000.0001)                 9.700000000000000E-01
(PID.TID 0000.0001)     ;
(PID.TID 0000.0001) SEAICE_salt0   = /* constant sea ice salinity */
(PID.TID 0000.0001)                 4.000000000000000E+00
(PID.TID 0000.0001)     ;
(PID.TID 0000.0001) SEAICE_salinityTracer = /* test SITR varia. salinity */
(PID.TID 0000.0001)                   F
(PID.TID 0000.0001)     ;
(PID.TID 0000.0001) SEAICEuseFlooding = /* turn submerged snow into ice */
(PID.TID 0000.0001)                   T
(PID.TID 0000.0001)     ;
(PID.TID 0000.0001) 
(PID.TID 0000.0001)    Seaice air-sea fluxes configuration,   > START <
(PID.TID 0000.0001)    -----------------------------------------------
(PID.TID 0000.0001) SEAICEheatConsFix  = /* accound for ocn<->seaice advect. heat flux */
(PID.TID 0000.0001)                   T
(PID.TID 0000.0001)     ;
(PID.TID 0000.0001) SEAICE_multDim    = /* number of ice categories (1 or 7) */
(PID.TID 0000.0001)                       1
(PID.TID 0000.0001)     ;
(PID.TID 0000.0001) SEAICE_PDF        = /* sea-ice distribution (-) */
(PID.TID 0000.0001)                 1.000000000000000E+00,      /* K =  1 */
(PID.TID 0000.0001)     6 @  0.000000000000000E+00              /* K =  2:  7 */
(PID.TID 0000.0001)     ;
(PID.TID 0000.0001) IMAX_TICE         = /* iterations for ice surface temp */
(PID.TID 0000.0001)                      10
(PID.TID 0000.0001)     ;
(PID.TID 0000.0001) postSolvTempIter= /* flux calculation after surf. temp iter */
(PID.TID 0000.0001)                       2
(PID.TID 0000.0001)     ;
(PID.TID 0000.0001) SEAICE_dryIceAlb  = /* winter albedo */
(PID.TID 0000.0001)                 7.500000000000000E-01
(PID.TID 0000.0001)     ;
(PID.TID 0000.0001) SEAICE_wetIceAlb  = /* summer albedo */
(PID.TID 0000.0001)                 6.600000000000000E-01
(PID.TID 0000.0001)     ;
(PID.TID 0000.0001) SEAICE_drySnowAlb = /* dry snow albedo */
(PID.TID 0000.0001)                 8.400000000000000E-01
(PID.TID 0000.0001)     ;
(PID.TID 0000.0001) SEAICE_wetSnowAlb = /* wet snow albedo */
(PID.TID 0000.0001)                 7.000000000000000E-01
(PID.TID 0000.0001)     ;
(PID.TID 0000.0001) SEAICE_dryIceAlb_south = /* Southern Ocean dryIceAlb */
(PID.TID 0000.0001)                 7.500000000000000E-01
(PID.TID 0000.0001)     ;
(PID.TID 0000.0001) SEAICE_wetIceAlb_south = /* Southern Ocean wetIceAlb */
(PID.TID 0000.0001)                 6.600000000000000E-01
(PID.TID 0000.0001)     ;
(PID.TID 0000.0001) SEAICE_drySnowAlb_south= /* Southern Ocean drySnowAlb */
(PID.TID 0000.0001)                 8.400000000000000E-01
(PID.TID 0000.0001)     ;
(PID.TID 0000.0001) SEAICE_wetSnowAlb_south= /* Southern Ocean wetSnowAlb */
(PID.TID 0000.0001)                 7.000000000000000E-01
(PID.TID 0000.0001)     ;
(PID.TID 0000.0001) SEAICE_wetAlbTemp= /* Temp (o.C) threshold for wet-albedo */
(PID.TID 0000.0001)                -1.000000000000000E-03
(PID.TID 0000.0001)     ;
(PID.TID 0000.0001) SEAICE_snow_emiss = /* snow emissivity */
(PID.TID 0000.0001)                 9.500000000000000E-01
(PID.TID 0000.0001)     ;
(PID.TID 0000.0001) SEAICE_ice_emiss = /* seaice emissivity */
(PID.TID 0000.0001)                 9.500000000000000E-01
(PID.TID 0000.0001)     ;
(PID.TID 0000.0001) SEAICE_cpAir      = /* heat capacity of air */
(PID.TID 0000.0001)                 1.005000000000000E+03
(PID.TID 0000.0001)     ;
(PID.TID 0000.0001) SEAICE_dalton     = /* constant dalton number */
(PID.TID 0000.0001)                 1.750000000000000E-03
(PID.TID 0000.0001)     ;
(PID.TID 0000.0001) SEAICE_iceConduct = /* sea-ice conductivity */
(PID.TID 0000.0001)                 2.165600000000000E+00
(PID.TID 0000.0001)     ;
(PID.TID 0000.0001) SEAICE_snowConduct= /* snow conductivity */
(PID.TID 0000.0001)                 3.100000000000000E-01
(PID.TID 0000.0001)     ;
(PID.TID 0000.0001) SEAICE_snowThick  = /* cutoff snow thickness (for albedo) */
(PID.TID 0000.0001)                 1.500000000000000E-01
(PID.TID 0000.0001)     ;
(PID.TID 0000.0001) SEAICE_shortwave  = /* penetration shortwave radiation */
(PID.TID 0000.0001)                 3.000000000000000E-01
(PID.TID 0000.0001)     ;
(PID.TID 0000.0001) useMaykutSatVapPoly = /* use Maykut Polynomial for Sat.Vap.Pr */
(PID.TID 0000.0001)                   F
(PID.TID 0000.0001)     ;
(PID.TID 0000.0001) MIN_ATEMP         = /* minimum air temperature */
(PID.TID 0000.0001)                -4.000000000000000E+01
(PID.TID 0000.0001)     ;
(PID.TID 0000.0001) MIN_LWDOWN        = /* minimum downward longwave */
(PID.TID 0000.0001)                 6.000000000000000E+01
(PID.TID 0000.0001)     ;
(PID.TID 0000.0001) MIN_TICE          = /* minimum ice temperature */
(PID.TID 0000.0001)                -4.000000000000000E+01
(PID.TID 0000.0001)     ;
(PID.TID 0000.0001) 
(PID.TID 0000.0001)    Seaice initialization and IO config.,   > START <
(PID.TID 0000.0001)    -------------------------------------------------
(PID.TID 0000.0001) SEAICE_initialHEFF= /* initial sea-ice thickness */
(PID.TID 0000.0001)                 0.000000000000000E+00
(PID.TID 0000.0001)     ;
(PID.TID 0000.0001) AreaFile = /* Initial ice concentration File */
(PID.TID 0000.0001)               'siAREA.ini'
(PID.TID 0000.0001)     ;
(PID.TID 0000.0001) HeffFile = /* Initial effective ice thickness File */
(PID.TID 0000.0001)               'siHEFF.ini'
(PID.TID 0000.0001)     ;
(PID.TID 0000.0001) HsnowFile = /* Initial snow thickness File */
(PID.TID 0000.0001)               'siHSNOW.ini'
(PID.TID 0000.0001)     ;
(PID.TID 0000.0001) uIceFile = /* Initial U-ice velocity File */
(PID.TID 0000.0001)               'siUICE.ini'
(PID.TID 0000.0001)     ;
(PID.TID 0000.0001) vIceFile = /* Initial V-ice velocity File */
(PID.TID 0000.0001)               'siVICE.ini'
(PID.TID 0000.0001)     ;
(PID.TID 0000.0001) SEAICEwriteState  = /* write sea ice state to file */
(PID.TID 0000.0001)                   F
(PID.TID 0000.0001)     ;
(PID.TID 0000.0001) SEAICE_monFreq  = /* monitor frequency */
(PID.TID 0000.0001)                 7.200000000000000E+03
(PID.TID 0000.0001)     ;
(PID.TID 0000.0001) SEAICE_dumpFreq   = /* dump frequency */
(PID.TID 0000.0001)                 0.000000000000000E+00
(PID.TID 0000.0001)     ;
(PID.TID 0000.0001) SEAICE_mon_stdio  = /* write monitor to std-outp */
(PID.TID 0000.0001)                   T
(PID.TID 0000.0001)     ;
(PID.TID 0000.0001) SEAICE_dump_mdsio = /* write snap-shot   using MDSIO */
(PID.TID 0000.0001)                   T
(PID.TID 0000.0001)     ;
(PID.TID 0000.0001) 
(PID.TID 0000.0001)    Seaice regularization numbers,   > START <
(PID.TID 0000.0001)    -----------------------------------------------
(PID.TID 0000.0001) SEAICE_deltaMin   = /* reduce singularities in Delta */
(PID.TID 0000.0001)                 1.000000000000000E-10
(PID.TID 0000.0001)     ;
(PID.TID 0000.0001) SEAICE_EPS        = /* small number */
(PID.TID 0000.0001)                 1.000000000000000E-10
(PID.TID 0000.0001)     ;
(PID.TID 0000.0001) SEAICE_EPS_SQ     = /* small number squared */
(PID.TID 0000.0001)                 1.000000000000000E-20
(PID.TID 0000.0001)     ;
(PID.TID 0000.0001) SEAICE_area_reg   = /* reduce derivative singularities */
(PID.TID 0000.0001)                 1.000000000000000E-05
(PID.TID 0000.0001)     ;
(PID.TID 0000.0001) SEAICE_hice_reg   = /* reduce derivative singularities */
(PID.TID 0000.0001)                 5.000000000000000E-02
(PID.TID 0000.0001)     ;
(PID.TID 0000.0001) SEAICE_area_floor = /* reduce derivative singularities */
(PID.TID 0000.0001)                 1.000000000000000E-05
(PID.TID 0000.0001)     ;
(PID.TID 0000.0001) 
(PID.TID 0000.0001) // =======================================================
(PID.TID 0000.0001) // Seaice configuration (SEAICE_PARM01) >>> END <<<
(PID.TID 0000.0001) // =======================================================
(PID.TID 0000.0001) 
(PID.TID 0000.0001) CTRL_INIT_FIXED: ivar=   6 = number of CTRL variables defined
(PID.TID 0000.0001) 
(PID.TID 0000.0001) ctrl-wet 1:    nvarlength =        84273
(PID.TID 0000.0001) ctrl-wet 2: surface wet C =          237
(PID.TID 0000.0001) ctrl-wet 3: surface wet W =          228
(PID.TID 0000.0001) ctrl-wet 4: surface wet S =          233
(PID.TID 0000.0001) ctrl-wet 5: 3D wet points =        10699
(PID.TID 0000.0001) ctrl-wet 6: no recs for ivar =     1           1
(PID.TID 0000.0001) ctrl-wet 6: no recs for ivar =     2           1
(PID.TID 0000.0001) ctrl-wet 6: no recs for ivar =     3           1
(PID.TID 0000.0001) ctrl-wet 6: no recs for ivar =     4           1
(PID.TID 0000.0001) ctrl-wet 6: no recs for ivar =     5           2
(PID.TID 0000.0001) ctrl-wet 6: no recs for ivar =     6           6
(PID.TID 0000.0001) ctrl-wet 6: no recs for ivar =     7           0
(PID.TID 0000.0001) ctrl-wet 6: no recs for ivar =     8           0
(PID.TID 0000.0001) ctrl-wet 6: no recs for ivar =     9           0
(PID.TID 0000.0001) ctrl-wet 6: no recs for ivar =    10           0
(PID.TID 0000.0001) ctrl-wet 6: no recs for ivar =    11           0
(PID.TID 0000.0001) ctrl-wet 6: no recs for ivar =    12           0
(PID.TID 0000.0001) ctrl-wet 6: no recs for ivar =    13           0
(PID.TID 0000.0001) ctrl-wet 6: no recs for ivar =    14           0
(PID.TID 0000.0001) ctrl-wet 6: no recs for ivar =    15           0
(PID.TID 0000.0001) ctrl-wet -------------------------------------------------
(PID.TID 0000.0001) ctrl-wet 13: global nvarlength for Nr =   50      597138
(PID.TID 0000.0001) ctrl-wet -------------------------------------------------
(PID.TID 0000.0001) ctrl-wet 14: global nWet C/S/W k=    1        4420        4232        4206
(PID.TID 0000.0001) ctrl-wet 14: global nWet C/S/W k=    2        4420        4232        4206
(PID.TID 0000.0001) ctrl-wet 14: global nWet C/S/W k=    3        4420        4232        4206
(PID.TID 0000.0001) ctrl-wet 14: global nWet C/S/W k=    4        4420        4232        4206
(PID.TID 0000.0001) ctrl-wet 14: global nWet C/S/W k=    5        4420        4232        4206
(PID.TID 0000.0001) ctrl-wet 14: global nWet C/S/W k=    6        4313        4125        4106
(PID.TID 0000.0001) ctrl-wet 14: global nWet C/S/W k=    7        4297        4110        4095
(PID.TID 0000.0001) ctrl-wet 14: global nWet C/S/W k=    8        4285        4097        4081
(PID.TID 0000.0001) ctrl-wet 14: global nWet C/S/W k=    9        4276        4090        4073
(PID.TID 0000.0001) ctrl-wet 14: global nWet C/S/W k=   10        4258        4074        4058
(PID.TID 0000.0001) ctrl-wet 14: global nWet C/S/W k=   11        4248        4065        4049
(PID.TID 0000.0001) ctrl-wet 14: global nWet C/S/W k=   12        4235        4051        4035
(PID.TID 0000.0001) ctrl-wet 14: global nWet C/S/W k=   13        4224        4039        4026
(PID.TID 0000.0001) ctrl-wet 14: global nWet C/S/W k=   14        4205        4026        4008
(PID.TID 0000.0001) ctrl-wet 14: global nWet C/S/W k=   15        4194        4015        3996
(PID.TID 0000.0001) ctrl-wet 14: global nWet C/S/W k=   16        4185        4005        3987
(PID.TID 0000.0001) ctrl-wet 14: global nWet C/S/W k=   17        4172        3993        3972
(PID.TID 0000.0001) ctrl-wet 14: global nWet C/S/W k=   18        4151        3972        3951
(PID.TID 0000.0001) ctrl-wet 14: global nWet C/S/W k=   19        4134        3954        3931
(PID.TID 0000.0001) ctrl-wet 14: global nWet C/S/W k=   20        4122        3942        3921
(PID.TID 0000.0001) ctrl-wet 14: global nWet C/S/W k=   21        4109        3929        3906
(PID.TID 0000.0001) ctrl-wet 14: global nWet C/S/W k=   22        4096        3916        3891
(PID.TID 0000.0001) ctrl-wet 14: global nWet C/S/W k=   23        4081        3899        3878
(PID.TID 0000.0001) ctrl-wet 14: global nWet C/S/W k=   24        4046        3863        3845
(PID.TID 0000.0001) ctrl-wet 14: global nWet C/S/W k=   25        4028        3847        3829
(PID.TID 0000.0001) ctrl-wet 14: global nWet C/S/W k=   26        4013        3831        3812
(PID.TID 0000.0001) ctrl-wet 14: global nWet C/S/W k=   27        4002        3819        3801
(PID.TID 0000.0001) ctrl-wet 14: global nWet C/S/W k=   28        3981        3798        3782
(PID.TID 0000.0001) ctrl-wet 14: global nWet C/S/W k=   29        3971        3786        3768
(PID.TID 0000.0001) ctrl-wet 14: global nWet C/S/W k=   30        3944        3756        3737
(PID.TID 0000.0001) ctrl-wet 14: global nWet C/S/W k=   31        3932        3746        3725
(PID.TID 0000.0001) ctrl-wet 14: global nWet C/S/W k=   32        3910        3723        3700
(PID.TID 0000.0001) ctrl-wet 14: global nWet C/S/W k=   33        3897        3709        3684
(PID.TID 0000.0001) ctrl-wet 14: global nWet C/S/W k=   34        3879        3689        3665
(PID.TID 0000.0001) ctrl-wet 14: global nWet C/S/W k=   35        3840        3652        3627
(PID.TID 0000.0001) ctrl-wet 14: global nWet C/S/W k=   36        3818        3628        3607
(PID.TID 0000.0001) ctrl-wet 14: global nWet C/S/W k=   37        3799        3605        3585
(PID.TID 0000.0001) ctrl-wet 14: global nWet C/S/W k=   38        3748        3547        3515
(PID.TID 0000.0001) ctrl-wet 14: global nWet C/S/W k=   39        3712        3509        3474
(PID.TID 0000.0001) ctrl-wet 14: global nWet C/S/W k=   40        3675        3469        3431
(PID.TID 0000.0001) ctrl-wet 14: global nWet C/S/W k=   41        3582        3369        3334
(PID.TID 0000.0001) ctrl-wet 14: global nWet C/S/W k=   42        3512        3293        3254
(PID.TID 0000.0001) ctrl-wet 14: global nWet C/S/W k=   43        3302        3039        3018
(PID.TID 0000.0001) ctrl-wet 14: global nWet C/S/W k=   44        3092        2794        2784
(PID.TID 0000.0001) ctrl-wet 14: global nWet C/S/W k=   45        2721        2419        2394
(PID.TID 0000.0001) ctrl-wet 14: global nWet C/S/W k=   46        2237        1936        1924
(PID.TID 0000.0001) ctrl-wet 14: global nWet C/S/W k=   47        1745        1471        1443
(PID.TID 0000.0001) ctrl-wet 14: global nWet C/S/W k=   48        1133         922         899
(PID.TID 0000.0001) ctrl-wet 14: global nWet C/S/W k=   49         483         345         328
(PID.TID 0000.0001) ctrl-wet 14: global nWet C/S/W k=   50          99          61          53
(PID.TID 0000.0001) ctrl-wet -------------------------------------------------
(PID.TID 0000.0001) ctrl_init_wet: no. of control variables:            6
(PID.TID 0000.0001) ctrl_init_wet: control vector length:          597138
(PID.TID 0000.0001) 
(PID.TID 0000.0001) // =======================================================
(PID.TID 0000.0001) // control vector configuration  >>> START <<<
(PID.TID 0000.0001) // =======================================================
(PID.TID 0000.0001) 
(PID.TID 0000.0001)  Total number of ocean points per tile:
(PID.TID 0000.0001)  --------------------------------------
(PID.TID 0000.0001)  sNx*sNy*Nr =    12800
(PID.TID 0000.0001) 
(PID.TID 0000.0001)  Number of ocean points per tile:
(PID.TID 0000.0001)  --------------------------------
(PID.TID 0000.0001)  bi,bj,#(c/s/w): 001 001   10699   10456   10085
(PID.TID 0000.0001)  bi,bj,#(c/s/w): 002 001    6514    6422    5882
(PID.TID 0000.0001)  bi,bj,#(c/s/w): 003 001    9096    8680    8935
(PID.TID 0000.0001) 
(PID.TID 0000.0001)  -> 3d control, genarr3d no.  1 is in use
(PID.TID 0000.0001)       file       = xx_theta
(PID.TID 0000.0001)       ncvartype  = Arr3D
(PID.TID 0000.0001)       index      =     1  (use this for pkg/grdchk)
(PID.TID 0000.0001)       ncvarindex =     1
(PID.TID 0000.0001)       weight     = wt_theta.data
(PID.TID 0000.0001) 
(PID.TID 0000.0001)  -> 3d control, genarr3d no.  2 is in use
(PID.TID 0000.0001)       file       = xx_salt
(PID.TID 0000.0001)       ncvartype  = Arr3D
(PID.TID 0000.0001)       index      =     2  (use this for pkg/grdchk)
(PID.TID 0000.0001)       ncvarindex =     2
(PID.TID 0000.0001)       weight     = wt_salt.data
(PID.TID 0000.0001) 
(PID.TID 0000.0001)  -> 3d control, genarr3d no.  3 is in use
(PID.TID 0000.0001)       file       = xx_kapgm
(PID.TID 0000.0001)       ncvartype  = Arr3D
(PID.TID 0000.0001)       index      =     3  (use this for pkg/grdchk)
(PID.TID 0000.0001)       ncvarindex =     3
(PID.TID 0000.0001)       weight     = wt_kapgm.data
(PID.TID 0000.0001) 
(PID.TID 0000.0001)  -> time variable 2d control, gentim2d no.  1 is in use
(PID.TID 0000.0001)       file       = xx_atempA
(PID.TID 0000.0001)       ncvartype  = Tim2D
(PID.TID 0000.0001)       index      =     4  (use this for pkg/grdchk)
(PID.TID 0000.0001)       ncvarindex =     1
(PID.TID 0000.0001)       weight     = wt_atemp.data
(PID.TID 0000.0001)       period     =  00000000 020000
(PID.TID 0000.0001)       preprocess = docycle
(PID.TID 0000.0001)         param. (int.)=      1
(PID.TID 0000.0001)       preprocess = WC01
(PID.TID 0000.0001) 
(PID.TID 0000.0001)  -> time variable 2d control, gentim2d no.  2 is in use
(PID.TID 0000.0001)       file       = xx_atempB
(PID.TID 0000.0001)       ncvartype  = Tim2D
(PID.TID 0000.0001)       index      =     5  (use this for pkg/grdchk)
(PID.TID 0000.0001)       ncvarindex =     2
(PID.TID 0000.0001)       weight     = wt_atemp.data
(PID.TID 0000.0001)       period     =  00000000 020000
(PID.TID 0000.0001)       preprocess = docycle
(PID.TID 0000.0001)         param. (int.)=      2
(PID.TID 0000.0001)       preprocess = rmcycle
(PID.TID 0000.0001)         param. (int.)=      1
(PID.TID 0000.0001)       preprocess = WC01
(PID.TID 0000.0001) 
(PID.TID 0000.0001)  -> time variable 2d control, gentim2d no.  3 is in use
(PID.TID 0000.0001)       file       = xx_atempC
(PID.TID 0000.0001)       ncvartype  = Tim2D
(PID.TID 0000.0001)       index      =     6  (use this for pkg/grdchk)
(PID.TID 0000.0001)       ncvarindex =     3
(PID.TID 0000.0001)       weight     = wt_atemp.data
(PID.TID 0000.0001)       period     =  00000000 020000
(PID.TID 0000.0001)       preprocess = rmcycle
(PID.TID 0000.0001)         param. (int.)=      2
(PID.TID 0000.0001)       preprocess = WC01
(PID.TID 0000.0001) 
(PID.TID 0000.0001) // =======================================================
(PID.TID 0000.0001) // control vector configuration  >>> END <<<
(PID.TID 0000.0001) // =======================================================
(PID.TID 0000.0001) 
(PID.TID 0000.0001) INI_GLOBAL_DOMAIN: Found  19 CS-corner Pts in the domain
(PID.TID 0000.0001) %MON fCori_max                    =   1.4574827780704E-04
(PID.TID 0000.0001) %MON fCori_min                    =  -1.4574827780704E-04
(PID.TID 0000.0001) %MON fCori_mean                   =   1.1293772630057E-21
(PID.TID 0000.0001) %MON fCori_sd                     =   8.4202189509968E-05
(PID.TID 0000.0001) %MON fCoriG_max                   =   1.4584247033981E-04
(PID.TID 0000.0001) %MON fCoriG_min                   =  -1.4584247033981E-04
(PID.TID 0000.0001) %MON fCoriG_mean                  =   1.4117215787572E-20
(PID.TID 0000.0001) %MON fCoriG_sd                    =   8.4202189509968E-05
(PID.TID 0000.0001) %MON fCoriCos_max                 =   1.4580166994612E-04
(PID.TID 0000.0001) %MON fCoriCos_min                 =   5.2407700865903E-06
(PID.TID 0000.0001) %MON fCoriCos_mean                =   1.1514045869113E-04
(PID.TID 0000.0001) %MON fCoriCos_sd                  =   3.0375849106513E-05
(PID.TID 0000.0001) INI_CG2D: CG2D normalisation factor =  1.6658494934563737E-04
(PID.TID 0000.0001) 
(PID.TID 0000.0001) // =======================================================
(PID.TID 0000.0001) // Model configuration
(PID.TID 0000.0001) // =======================================================
(PID.TID 0000.0001) //
(PID.TID 0000.0001) // "Physical" paramters ( PARM01 in namelist )
(PID.TID 0000.0001) //
(PID.TID 0000.0001) buoyancyRelation = /* Type of relation to get Buoyancy */
(PID.TID 0000.0001)               'OCEANIC'
(PID.TID 0000.0001)     ;
(PID.TID 0000.0001) fluidIsAir   =  /* fluid major constituent is Air */
(PID.TID 0000.0001)                   F
(PID.TID 0000.0001)     ;
(PID.TID 0000.0001) fluidIsWater =  /* fluid major constituent is Water */
(PID.TID 0000.0001)                   T
(PID.TID 0000.0001)     ;
(PID.TID 0000.0001) usingPCoords =  /* use p (or p*) vertical coordinate */
(PID.TID 0000.0001)                   F
(PID.TID 0000.0001)     ;
(PID.TID 0000.0001) usingZCoords =  /* use z (or z*) vertical coordinate */
(PID.TID 0000.0001)                   T
(PID.TID 0000.0001)     ;
(PID.TID 0000.0001) tRef =   /* Reference temperature profile ( oC or K ) */
(PID.TID 0000.0001)     3 @  2.300000000000000E+01,             /* K =  1:  3 */
(PID.TID 0000.0001)     3 @  2.200000000000000E+01,             /* K =  4:  6 */
(PID.TID 0000.0001)                 2.100000000000000E+01,      /* K =  7 */
(PID.TID 0000.0001)     2 @  2.000000000000000E+01,             /* K =  8:  9 */
(PID.TID 0000.0001)                 1.900000000000000E+01,      /* K = 10 */
(PID.TID 0000.0001)     2 @  1.800000000000000E+01,             /* K = 11: 12 */
(PID.TID 0000.0001)                 1.700000000000000E+01,      /* K = 13 */
(PID.TID 0000.0001)     2 @  1.600000000000000E+01,             /* K = 14: 15 */
(PID.TID 0000.0001)                 1.500000000000000E+01,      /* K = 16 */
(PID.TID 0000.0001)                 1.400000000000000E+01,      /* K = 17 */
(PID.TID 0000.0001)                 1.300000000000000E+01,      /* K = 18 */
(PID.TID 0000.0001)                 1.200000000000000E+01,      /* K = 19 */
(PID.TID 0000.0001)                 1.100000000000000E+01,      /* K = 20 */
(PID.TID 0000.0001)     2 @  9.000000000000000E+00,             /* K = 21: 22 */
(PID.TID 0000.0001)                 8.000000000000000E+00,      /* K = 23 */
(PID.TID 0000.0001)                 7.000000000000000E+00,      /* K = 24 */
(PID.TID 0000.0001)     2 @  6.000000000000000E+00,             /* K = 25: 26 */
(PID.TID 0000.0001)     2 @  5.000000000000000E+00,             /* K = 27: 28 */
(PID.TID 0000.0001)     3 @  4.000000000000000E+00,             /* K = 29: 31 */
(PID.TID 0000.0001)     3 @  3.000000000000000E+00,             /* K = 32: 34 */
(PID.TID 0000.0001)     4 @  2.000000000000000E+00,             /* K = 35: 38 */
(PID.TID 0000.0001)    12 @  1.000000000000000E+00              /* K = 39: 50 */
(PID.TID 0000.0001)     ;
(PID.TID 0000.0001) sRef =   /* Reference salinity profile ( g/kg ) */
(PID.TID 0000.0001)    50 @  3.450000000000000E+01              /* K =  1: 50 */
(PID.TID 0000.0001)     ;
(PID.TID 0000.0001) rhoRef =   /* Density vertical profile from (Ref,sRef)( kg/m^3 ) */
(PID.TID 0000.0001)                 1.023577603477196E+03,      /* K =  1 */
(PID.TID 0000.0001)                 1.023620777136617E+03,      /* K =  2 */
(PID.TID 0000.0001)                 1.023663941036695E+03,      /* K =  3 */
(PID.TID 0000.0001)                 1.023991015718490E+03,      /* K =  4 */
(PID.TID 0000.0001)                 1.024034306669897E+03,      /* K =  5 */
(PID.TID 0000.0001)                 1.024077587828753E+03,      /* K =  6 */
(PID.TID 0000.0001)                 1.024397096508654E+03,      /* K =  7 */
(PID.TID 0000.0001)                 1.024708673329142E+03,      /* K =  8 */
(PID.TID 0000.0001)                 1.024752319822224E+03,      /* K =  9 */
(PID.TID 0000.0001)                 1.025056259681613E+03,      /* K = 10 */
(PID.TID 0000.0001)                 1.025352644399205E+03,      /* K = 11 */
(PID.TID 0000.0001)                 1.025398957600777E+03,      /* K = 12 */
(PID.TID 0000.0001)                 1.025691882161156E+03,      /* K = 13 */
(PID.TID 0000.0001)                 1.025982177516916E+03,      /* K = 14 */
(PID.TID 0000.0001)                 1.026047240518975E+03,      /* K = 15 */
(PID.TID 0000.0001)                 1.026352942626987E+03,      /* K = 16 */
(PID.TID 0000.0001)                 1.026669770198047E+03,      /* K = 17 */
(PID.TID 0000.0001)                 1.027003315092154E+03,      /* K = 18 */
(PID.TID 0000.0001)                 1.027358849068998E+03,      /* K = 19 */
(PID.TID 0000.0001)                 1.027740686384669E+03,      /* K = 20 */
(PID.TID 0000.0001)                 1.028324553331053E+03,      /* K = 21 */
(PID.TID 0000.0001)                 1.028593221231610E+03,      /* K = 22 */
(PID.TID 0000.0001)                 1.029064475561974E+03,      /* K = 23 */
(PID.TID 0000.0001)                 1.029563084816846E+03,      /* K = 24 */
(PID.TID 0000.0001)                 1.030085114878761E+03,      /* K = 25 */
(PID.TID 0000.0001)                 1.030486089114683E+03,      /* K = 26 */
(PID.TID 0000.0001)                 1.031048075107123E+03,      /* K = 27 */
(PID.TID 0000.0001)                 1.031484375801639E+03,      /* K = 28 */
(PID.TID 0000.0001)                 1.032065171983561E+03,      /* K = 29 */
(PID.TID 0000.0001)                 1.032517922992319E+03,      /* K = 30 */
(PID.TID 0000.0001)                 1.032973670366665E+03,      /* K = 31 */
(PID.TID 0000.0001)                 1.033565488723493E+03,      /* K = 32 */
(PID.TID 0000.0001)                 1.034036918499537E+03,      /* K = 33 */
(PID.TID 0000.0001)                 1.034530048673366E+03,      /* K = 34 */
(PID.TID 0000.0001)                 1.035193531658509E+03,      /* K = 35 */
(PID.TID 0000.0001)                 1.035792065871340E+03,      /* K = 36 */
(PID.TID 0000.0001)                 1.036470923617515E+03,      /* K = 37 */
(PID.TID 0000.0001)                 1.037242016518006E+03,      /* K = 38 */
(PID.TID 0000.0001)                 1.038247118431009E+03,      /* K = 39 */
(PID.TID 0000.0001)                 1.039220297575330E+03,      /* K = 40 */
(PID.TID 0000.0001)                 1.040291819497536E+03,      /* K = 41 */
(PID.TID 0000.0001)                 1.041460110377147E+03,      /* K = 42 */
(PID.TID 0000.0001)                 1.042723334638967E+03,      /* K = 43 */
(PID.TID 0000.0001)                 1.044079512399653E+03,      /* K = 44 */
(PID.TID 0000.0001)                 1.045526523812687E+03,      /* K = 45 */
(PID.TID 0000.0001)                 1.047062113733185E+03,      /* K = 46 */
(PID.TID 0000.0001)                 1.048683896693754E+03,      /* K = 47 */
(PID.TID 0000.0001)                 1.050389362181617E+03,      /* K = 48 */
(PID.TID 0000.0001)                 1.052175880206080E+03,      /* K = 49 */
(PID.TID 0000.0001)                 1.054040707144287E+03       /* K = 50 */
(PID.TID 0000.0001)     ;
(PID.TID 0000.0001) dBdrRef = /* Vertical grad. of reference buoyancy [(m/s/r)^2] */
(PID.TID 0000.0001)     3 @  0.000000000000000E+00,             /* K =  1:  3 */
(PID.TID 0000.0001)                 2.706065538651213E-04,      /* K =  4 */
(PID.TID 0000.0001)     2 @  0.000000000000000E+00,             /* K =  5:  6 */
(PID.TID 0000.0001)                 2.632794562663490E-04,      /* K =  7 */
(PID.TID 0000.0001)                 2.554318021231947E-04,      /* K =  8 */
(PID.TID 0000.0001)                 0.000000000000000E+00,      /* K =  9 */
(PID.TID 0000.0001)                 2.461524232360561E-04,      /* K = 10 */
(PID.TID 0000.0001)                 2.348694431245364E-04,      /* K = 11 */
(PID.TID 0000.0001)                 0.000000000000000E+00,      /* K = 12 */
(PID.TID 0000.0001)                 2.056847859884566E-04,      /* K = 13 */
(PID.TID 0000.0001)                 1.777764506003336E-04,      /* K = 14 */
(PID.TID 0000.0001)                 0.000000000000000E+00,      /* K = 15 */
(PID.TID 0000.0001)                 1.203533867077665E-04,      /* K = 16 */
(PID.TID 0000.0001)                 9.288540355629585E-05,      /* K = 17 */
(PID.TID 0000.0001)                 7.115862770365155E-05,      /* K = 18 */
(PID.TID 0000.0001)                 5.484365820533800E-05,      /* K = 19 */
(PID.TID 0000.0001)                 4.290935507113214E-05,      /* K = 20 */
(PID.TID 0000.0001)                 6.658747741703880E-05,      /* K = 21 */
(PID.TID 0000.0001)                 0.000000000000000E+00,      /* K = 22 */
(PID.TID 0000.0001)                 2.323718420342036E-05,      /* K = 23 */
(PID.TID 0000.0001)                 1.974682037962757E-05,      /* K = 24 */
(PID.TID 0000.0001)                 1.709468932536602E-05,      /* K = 25 */
(PID.TID 0000.0001)                 0.000000000000000E+00,      /* K = 26 */
(PID.TID 0000.0001)                 1.455436545977052E-05,      /* K = 27 */
(PID.TID 0000.0001)                 0.000000000000000E+00,      /* K = 28 */
(PID.TID 0000.0001)                 1.315287111980149E-05,      /* K = 29 */
(PID.TID 0000.0001)     2 @  0.000000000000000E+00,             /* K = 30: 31 */
(PID.TID 0000.0001)                 1.240968507885233E-05,      /* K = 32 */
(PID.TID 0000.0001)     2 @  0.000000000000000E+00,             /* K = 33: 34 */
(PID.TID 0000.0001)                 1.045141607964570E-05,      /* K = 35 */
(PID.TID 0000.0001)     3 @  0.000000000000000E+00,             /* K = 36: 38 */
(PID.TID 0000.0001)                 6.628797113709505E-06,      /* K = 39 */
(PID.TID 0000.0001)    11 @  0.000000000000000E+00              /* K = 40: 50 */
(PID.TID 0000.0001)     ;
(PID.TID 0000.0001) useStrainTensionVisc= /* Use StrainTension Form of Viscous Operator */
(PID.TID 0000.0001)                   F
(PID.TID 0000.0001)     ;
(PID.TID 0000.0001) useVariableVisc = /* Use variable horizontal viscosity */
(PID.TID 0000.0001)                   T
(PID.TID 0000.0001)     ;
(PID.TID 0000.0001) useHarmonicVisc = /* Use harmonic horizontal viscosity */
(PID.TID 0000.0001)                   T
(PID.TID 0000.0001)     ;
(PID.TID 0000.0001) useBiharmonicVisc= /* Use biharmonic horiz.  viscosity */
(PID.TID 0000.0001)                   F
(PID.TID 0000.0001)     ;
(PID.TID 0000.0001) useSmag3D = /* Use isotropic 3-D Smagorinsky viscosity */
(PID.TID 0000.0001)                   F
(PID.TID 0000.0001)     ;
(PID.TID 0000.0001) viscAh  =   /* Lateral harmonic viscosity ( m^2/s ) */
(PID.TID 0000.0001)                 1.000000000000000E+00
(PID.TID 0000.0001)     ;
(PID.TID 0000.0001) viscAhMax = /* Maximum lateral harmonic viscosity ( m^2/s ) */
(PID.TID 0000.0001)                 1.000000000000000E+21
(PID.TID 0000.0001)     ;
(PID.TID 0000.0001) viscAhGrid = /* Grid dependent lateral harmonic viscosity ( non-dim. ) */
(PID.TID 0000.0001)                 2.000000000000000E-02
(PID.TID 0000.0001)     ;
(PID.TID 0000.0001) useFullLeith = /* Use Full Form of Leith Viscosity on/off flag*/
(PID.TID 0000.0001)                   F
(PID.TID 0000.0001)     ;
(PID.TID 0000.0001) useAreaViscLength = /* Use area for visc length instead of geom. mean*/
(PID.TID 0000.0001)                   F
(PID.TID 0000.0001)     ;
(PID.TID 0000.0001) viscC2leith = /* Leith harmonic visc. factor (on grad(vort),non-dim.) */
(PID.TID 0000.0001)                 0.000000000000000E+00
(PID.TID 0000.0001)     ;
(PID.TID 0000.0001) viscC2leithD = /* Leith harmonic viscosity factor (on grad(div),non-dim.)*/
(PID.TID 0000.0001)                 0.000000000000000E+00
(PID.TID 0000.0001)     ;
(PID.TID 0000.0001) viscC2LeithQG = /* QG Leith harmonic viscosity factor (non-dim.)*/
(PID.TID 0000.0001)                 0.000000000000000E+00
(PID.TID 0000.0001)     ;
(PID.TID 0000.0001) viscC2smag = /* Smagorinsky harmonic viscosity factor (non-dim.) */
(PID.TID 0000.0001)                 0.000000000000000E+00
(PID.TID 0000.0001)     ;
(PID.TID 0000.0001) viscA4  =   /* Lateral biharmonic viscosity ( m^4/s ) */
(PID.TID 0000.0001)                 0.000000000000000E+00
(PID.TID 0000.0001)     ;
(PID.TID 0000.0001) viscA4Max = /* Maximum biharmonic viscosity ( m^2/s ) */
(PID.TID 0000.0001)                 1.000000000000000E+21
(PID.TID 0000.0001)     ;
(PID.TID 0000.0001) viscA4Grid = /* Grid dependent biharmonic viscosity ( non-dim. ) */
(PID.TID 0000.0001)                 0.000000000000000E+00
(PID.TID 0000.0001)     ;
(PID.TID 0000.0001) viscC4leith = /* Leith biharm viscosity factor (on grad(vort), non-dim.)*/
(PID.TID 0000.0001)                 0.000000000000000E+00
(PID.TID 0000.0001)     ;
(PID.TID 0000.0001) viscC4leithD = /* Leith biharm viscosity factor (on grad(div), non-dim.) */
(PID.TID 0000.0001)                 0.000000000000000E+00
(PID.TID 0000.0001)     ;
(PID.TID 0000.0001) viscC4Smag = /* Smagorinsky biharm viscosity factor (non-dim) */
(PID.TID 0000.0001)                 0.000000000000000E+00
(PID.TID 0000.0001)     ;
(PID.TID 0000.0001) no_slip_sides =  /* Viscous BCs: No-slip sides */
(PID.TID 0000.0001)                   T
(PID.TID 0000.0001)     ;
(PID.TID 0000.0001) sideDragFactor = /* side-drag scaling factor (non-dim) */
(PID.TID 0000.0001)                 2.000000000000000E+00
(PID.TID 0000.0001)     ;
(PID.TID 0000.0001) viscArNr = /* vertical profile of vertical viscosity ( m^2/s )*/
(PID.TID 0000.0001)    50 @  1.000000000000000E-03              /* K =  1: 50 */
(PID.TID 0000.0001)     ;
(PID.TID 0000.0001) no_slip_bottom =  /* Viscous BCs: No-slip bottom */
(PID.TID 0000.0001)                   T
(PID.TID 0000.0001)     ;
(PID.TID 0000.0001) bottomVisc_pCell = /* Partial-cell in bottom Visc. BC */
(PID.TID 0000.0001)                   F
(PID.TID 0000.0001)     ;
(PID.TID 0000.0001) bottomDragLinear = /* linear bottom-drag coefficient ( m/s ) */
(PID.TID 0000.0001)                 0.000000000000000E+00
(PID.TID 0000.0001)     ;
(PID.TID 0000.0001) bottomDragQuadratic = /* quadratic bottom-drag coefficient (-) */
(PID.TID 0000.0001)                 1.000000000000000E-03
(PID.TID 0000.0001)     ;
(PID.TID 0000.0001) selectBotDragQuadr = /* select quadratic bottom drag options */
(PID.TID 0000.0001)                       0
(PID.TID 0000.0001)     ;
(PID.TID 0000.0001) diffKhT =   /* Laplacian diffusion of heat laterally ( m^2/s ) */
(PID.TID 0000.0001)                 1.000000000000000E+01
(PID.TID 0000.0001)     ;
(PID.TID 0000.0001) diffK4T =   /* Biharmonic diffusion of heat laterally ( m^4/s ) */
(PID.TID 0000.0001)                 0.000000000000000E+00
(PID.TID 0000.0001)     ;
(PID.TID 0000.0001) diffKhS =   /* Laplacian diffusion of salt laterally ( m^2/s ) */
(PID.TID 0000.0001)                 1.000000000000000E+01
(PID.TID 0000.0001)     ;
(PID.TID 0000.0001) diffK4S =   /* Biharmonic diffusion of salt laterally ( m^4/s ) */
(PID.TID 0000.0001)                 0.000000000000000E+00
(PID.TID 0000.0001)     ;
(PID.TID 0000.0001) diffKrNrT = /* vertical profile of vertical diffusion of Temp ( m^2/s )*/
(PID.TID 0000.0001)    50 @  1.000000000000000E-05              /* K =  1: 50 */
(PID.TID 0000.0001)     ;
(PID.TID 0000.0001) diffKrNrS = /* vertical profile of vertical diffusion of Salt ( m^2/s )*/
(PID.TID 0000.0001)    50 @  1.000000000000000E-05              /* K =  1: 50 */
(PID.TID 0000.0001)     ;
(PID.TID 0000.0001) diffKrBL79surf = /* Surface diffusion for Bryan and Lewis 79 ( m^2/s ) */
(PID.TID 0000.0001)                 0.000000000000000E+00
(PID.TID 0000.0001)     ;
(PID.TID 0000.0001) diffKrBL79deep = /* Deep diffusion for Bryan and Lewis 1979 ( m^2/s ) */
(PID.TID 0000.0001)                 0.000000000000000E+00
(PID.TID 0000.0001)     ;
(PID.TID 0000.0001) diffKrBL79scl = /* Depth scale for Bryan and Lewis 1979 ( m ) */
(PID.TID 0000.0001)                 2.000000000000000E+02
(PID.TID 0000.0001)     ;
(PID.TID 0000.0001) diffKrBL79Ho = /* Turning depth for Bryan and Lewis 1979 ( m ) */
(PID.TID 0000.0001)                -2.000000000000000E+03
(PID.TID 0000.0001)     ;
(PID.TID 0000.0001) ivdc_kappa = /* Implicit Vertical Diffusivity for Convection ( m^2/s) */
(PID.TID 0000.0001)                 1.000000000000000E+01
(PID.TID 0000.0001)     ;
(PID.TID 0000.0001) hMixCriteria=  /* Criteria for mixed-layer diagnostic */
(PID.TID 0000.0001)                -8.000000000000000E-01
(PID.TID 0000.0001)     ;
(PID.TID 0000.0001) dRhoSmall =  /* Parameter for mixed-layer diagnostic */
(PID.TID 0000.0001)                 1.000000000000000E-06
(PID.TID 0000.0001)     ;
(PID.TID 0000.0001) hMixSmooth=  /* Smoothing parameter for mixed-layer diagnostic */
(PID.TID 0000.0001)                 0.000000000000000E+00
(PID.TID 0000.0001)     ;
(PID.TID 0000.0001) eosType =  /* Type of Equation of State */
(PID.TID 0000.0001)               'JMD95Z'
(PID.TID 0000.0001)     ;
(PID.TID 0000.0001) eosRefP0 = /* Reference atmospheric pressure for EOS ( Pa ) */
(PID.TID 0000.0001)                 1.013250000000000E+05
(PID.TID 0000.0001)     ;
(PID.TID 0000.0001) selectP_inEOS_Zc = /* select pressure to use in EOS (0,1,2,3) */
(PID.TID 0000.0001)                       0
(PID.TID 0000.0001)     0= -g*rhoConst*z ; 1= pRef (from tRef,sRef); 2= Hyd P ; 3= Hyd+NH P
(PID.TID 0000.0001)     ;
(PID.TID 0000.0001) surf_pRef = /* Surface reference pressure ( Pa ) */
(PID.TID 0000.0001)                 1.013250000000000E+05
(PID.TID 0000.0001)     ;
(PID.TID 0000.0001) HeatCapacity_Cp =  /* Specific heat capacity ( J/kg/K ) */
(PID.TID 0000.0001)                 3.994000000000000E+03
(PID.TID 0000.0001)     ;
(PID.TID 0000.0001) celsius2K = /* 0 degree Celsius converted to Kelvin ( K ) */
(PID.TID 0000.0001)                 2.731500000000000E+02
(PID.TID 0000.0001)     ;
(PID.TID 0000.0001) rhoConst  = /* Reference density (Boussinesq)  ( kg/m^3 ) */
(PID.TID 0000.0001)                 1.029000000000000E+03
(PID.TID 0000.0001)     ;
(PID.TID 0000.0001) rhoFacC = /* normalized Reference density @ cell-Center (-) */
(PID.TID 0000.0001)    50 @  1.000000000000000E+00              /* K =  1: 50 */
(PID.TID 0000.0001)     ;
(PID.TID 0000.0001) rhoFacF = /* normalized Reference density @ W-Interface (-) */
(PID.TID 0000.0001)    51 @  1.000000000000000E+00              /* K =  1: 51 */
(PID.TID 0000.0001)     ;
(PID.TID 0000.0001) rhoConstFresh = /* Fresh-water reference density ( kg/m^3 ) */
(PID.TID 0000.0001)                 1.000000000000000E+03
(PID.TID 0000.0001)     ;
(PID.TID 0000.0001) gravity =   /* Gravitational acceleration ( m/s^2 ) */
(PID.TID 0000.0001)                 9.810000000000000E+00
(PID.TID 0000.0001)     ;
(PID.TID 0000.0001) gBaro =   /* Barotropic gravity ( m/s^2 ) */
(PID.TID 0000.0001)                 9.810000000000000E+00
(PID.TID 0000.0001)     ;
(PID.TID 0000.0001) gravFacC = /* gravity factor (vs surf.) @ cell-Center (-) */
(PID.TID 0000.0001)    50 @  1.000000000000000E+00              /* K =  1: 50 */
(PID.TID 0000.0001)     ;
(PID.TID 0000.0001) gravFacF = /* gravity factor (vs surf.) @ W-Interface (-) */
(PID.TID 0000.0001)    51 @  1.000000000000000E+00              /* K =  1: 51 */
(PID.TID 0000.0001)     ;
(PID.TID 0000.0001) rotationPeriod =   /* Rotation Period ( s ) */
(PID.TID 0000.0001)                 8.616400000000000E+04
(PID.TID 0000.0001)     ;
(PID.TID 0000.0001) omega =   /* Angular velocity ( rad/s ) */
(PID.TID 0000.0001)                 7.292123516990375E-05
(PID.TID 0000.0001)     ;
(PID.TID 0000.0001) f0 =   /* Reference coriolis parameter ( 1/s ) */
(PID.TID 0000.0001)                 1.000000000000000E-04
(PID.TID 0000.0001)     ;
(PID.TID 0000.0001) beta =   /* Beta ( 1/(m.s) ) */
(PID.TID 0000.0001)                 9.999999999999999E-12
(PID.TID 0000.0001)     ;
(PID.TID 0000.0001) fPrime =   /* Second coriolis parameter ( 1/s ) */
(PID.TID 0000.0001)                 0.000000000000000E+00
(PID.TID 0000.0001)     ;
(PID.TID 0000.0001) rigidLid =   /* Rigid lid on/off flag */
(PID.TID 0000.0001)                   F
(PID.TID 0000.0001)     ;
(PID.TID 0000.0001) implicitFreeSurface =   /* Implicit free surface on/off flag */
(PID.TID 0000.0001)                   T
(PID.TID 0000.0001)     ;
(PID.TID 0000.0001) freeSurfFac =   /* Implicit free surface factor */
(PID.TID 0000.0001)                 1.000000000000000E+00
(PID.TID 0000.0001)     ;
(PID.TID 0000.0001) implicSurfPress =  /* Surface Pressure implicit factor (0-1) */
(PID.TID 0000.0001)                 1.000000000000000E+00
(PID.TID 0000.0001)     ;
(PID.TID 0000.0001) implicDiv2DFlow =  /* Barot. Flow Div. implicit factor (0-1) */
(PID.TID 0000.0001)                 1.000000000000000E+00
(PID.TID 0000.0001)     ;
(PID.TID 0000.0001) uniformLin_PhiSurf = /* use uniform Bo_surf on/off flag */
(PID.TID 0000.0001)                   T
(PID.TID 0000.0001)     ;
(PID.TID 0000.0001) uniformFreeSurfLev = /* free-surface level-index is uniform */
(PID.TID 0000.0001)                   T
(PID.TID 0000.0001)     ;
(PID.TID 0000.0001) sIceLoadFac =  /* scale factor for sIceLoad (0-1) */
(PID.TID 0000.0001)                 1.000000000000000E+00
(PID.TID 0000.0001)     ;
(PID.TID 0000.0001) hFacMin =   /* minimum partial cell factor (hFac) */
(PID.TID 0000.0001)                 2.000000000000000E-01
(PID.TID 0000.0001)     ;
(PID.TID 0000.0001) hFacMinDr = /* minimum partial cell thickness ( m) */
(PID.TID 0000.0001)                 5.000000000000000E+00
(PID.TID 0000.0001)     ;
(PID.TID 0000.0001) exactConserv = /* Update etaN from continuity Eq on/off flag */
(PID.TID 0000.0001)                   T
(PID.TID 0000.0001)     ;
(PID.TID 0000.0001) linFSConserveTr = /* Tracer correction for Lin Free Surface on/off flag */
(PID.TID 0000.0001)                   F
(PID.TID 0000.0001)     ;
(PID.TID 0000.0001) nonlinFreeSurf = /* Non-linear Free Surf. options (-1,0,1,2,3)*/
(PID.TID 0000.0001)                       4
(PID.TID 0000.0001)      -1,0= Off ; 1,2,3= On, 2=+rescale gU,gV, 3=+update cg2d solv.
(PID.TID 0000.0001)     ;
(PID.TID 0000.0001) hFacInf =   /* lower threshold for hFac (nonlinFreeSurf only)*/
(PID.TID 0000.0001)                 2.000000000000000E-01
(PID.TID 0000.0001)     ;
(PID.TID 0000.0001) hFacSup =   /* upper threshold for hFac (nonlinFreeSurf only)*/
(PID.TID 0000.0001)                 2.000000000000000E+00
(PID.TID 0000.0001)     ;
(PID.TID 0000.0001) select_rStar = /* r* Vertical coord. options (=0 r coord.; >0 uses r*)*/
(PID.TID 0000.0001)                       2
(PID.TID 0000.0001)     ;
(PID.TID 0000.0001) useRealFreshWaterFlux = /* Real Fresh Water Flux on/off flag*/
(PID.TID 0000.0001)                   T
(PID.TID 0000.0001)     ;
(PID.TID 0000.0001) temp_EvPrRn = /* Temp. of Evap/Prec/R (UNSET=use local T)(oC)*/
(PID.TID 0000.0001)                 1.234567000000000E+05
(PID.TID 0000.0001)     ;
(PID.TID 0000.0001) salt_EvPrRn = /* Salin. of Evap/Prec/R (UNSET=use local S)(g/kg)*/
(PID.TID 0000.0001)                 0.000000000000000E+00
(PID.TID 0000.0001)     ;
(PID.TID 0000.0001) selectAddFluid = /* option for mass source/sink of fluid (=0: off) */
(PID.TID 0000.0001)                       0
(PID.TID 0000.0001)     ;
(PID.TID 0000.0001) temp_addMass = /* Temp. of addMass array (UNSET=use local T)(oC)*/
(PID.TID 0000.0001)                 1.234567000000000E+05
(PID.TID 0000.0001)     ;
(PID.TID 0000.0001) salt_addMass = /* Salin. of addMass array (UNSET=use local S)(g/kg)*/
(PID.TID 0000.0001)                 0.000000000000000E+00
(PID.TID 0000.0001)     ;
(PID.TID 0000.0001) use3Dsolver = /* use 3-D pressure solver on/off flag */
(PID.TID 0000.0001)                   F
(PID.TID 0000.0001)     ;
(PID.TID 0000.0001) nonHydrostatic =  /* Non-Hydrostatic on/off flag */
(PID.TID 0000.0001)                   F
(PID.TID 0000.0001)     ;
(PID.TID 0000.0001) nh_Am2 = /* Non-Hydrostatic terms scaling factor */
(PID.TID 0000.0001)                 1.000000000000000E+00
(PID.TID 0000.0001)     ;
(PID.TID 0000.0001) implicitNHPress = /* Non-Hyd Pressure implicit factor (0-1)*/
(PID.TID 0000.0001)                 1.000000000000000E+00
(PID.TID 0000.0001)     ;
(PID.TID 0000.0001) selectNHfreeSurf = /* Non-Hyd (free-)Surface option */
(PID.TID 0000.0001)                       0
(PID.TID 0000.0001)     ;
(PID.TID 0000.0001) quasiHydrostatic = /* Quasi-Hydrostatic on/off flag */
(PID.TID 0000.0001)                   F
(PID.TID 0000.0001)     ;
(PID.TID 0000.0001) calc_wVelocity = /* vertical velocity calculation on/off flag */
(PID.TID 0000.0001)                   T
(PID.TID 0000.0001)     ;
(PID.TID 0000.0001) momStepping =  /* Momentum equation on/off flag */
(PID.TID 0000.0001)                   T
(PID.TID 0000.0001)     ;
(PID.TID 0000.0001) vectorInvariantMomentum= /* Vector-Invariant Momentum on/off */
(PID.TID 0000.0001)                   T
(PID.TID 0000.0001)     ;
(PID.TID 0000.0001) momAdvection =  /* Momentum advection on/off flag */
(PID.TID 0000.0001)                   T
(PID.TID 0000.0001)     ;
(PID.TID 0000.0001) momViscosity =  /* Momentum viscosity on/off flag */
(PID.TID 0000.0001)                   T
(PID.TID 0000.0001)     ;
(PID.TID 0000.0001) momImplVertAdv= /* Momentum implicit vert. advection on/off*/
(PID.TID 0000.0001)                   F
(PID.TID 0000.0001)     ;
(PID.TID 0000.0001) implicitViscosity = /* Implicit viscosity on/off flag */
(PID.TID 0000.0001)                   T
(PID.TID 0000.0001)     ;
(PID.TID 0000.0001) selectImplicitDrag= /* Implicit bot Drag options (0,1,2)*/
(PID.TID 0000.0001)                       0
(PID.TID 0000.0001)     0= Expl. ; 1= Impl. on provis. Vel ; 2= Fully Impl (with surf.P)
(PID.TID 0000.0001)     ;
(PID.TID 0000.0001) useNHMTerms = /* Non-Hydrostatic Metric-Terms on/off */
(PID.TID 0000.0001)                   F
(PID.TID 0000.0001)     ;
(PID.TID 0000.0001) useCoriolis =  /* Coriolis on/off flag */
(PID.TID 0000.0001)                   T
(PID.TID 0000.0001)     ;
(PID.TID 0000.0001) useCDscheme =  /* CD scheme on/off flag */
(PID.TID 0000.0001)                   F
(PID.TID 0000.0001)     ;
(PID.TID 0000.0001) selectCoriMap = /* Coriolis Map options (0,1,2,3)*/
(PID.TID 0000.0001)                       2
(PID.TID 0000.0001)     0= f-Plane ; 1= Beta-Plane ; 2= Spherical ; 3= read from file
(PID.TID 0000.0001)     ;
(PID.TID 0000.0001) select3dCoriScheme= /* Scheme selector for 3-D Coriolis-Term */
(PID.TID 0000.0001)                       0
(PID.TID 0000.0001)    = 0 : Off (ignore 3-D Coriolis Terms in Omega.Cos(Lat) )
(PID.TID 0000.0001)    = 1 : original discretization ; = 2 : using averaged Transport
(PID.TID 0000.0001)    = 3 : same as 2 with hFac in gW_Cor
(PID.TID 0000.0001)     ;
(PID.TID 0000.0001) selectCoriScheme= /* Scheme selector for Coriolis-Term */
(PID.TID 0000.0001)                       1
(PID.TID 0000.0001)    = 0 : original discretization (simple averaging, no hFac)
(PID.TID 0000.0001)    = 1 : Wet-point averaging (Jamar & Ozer 1986)
(PID.TID 0000.0001)    = 2 : hFac weighted average (Angular Mom. conserving)
(PID.TID 0000.0001)    = 3 : energy conserving scheme using hFac weighted average
(PID.TID 0000.0001)     ;
(PID.TID 0000.0001) useAbsVorticity= /* V.I Works with f+zeta in Coriolis */
(PID.TID 0000.0001)                   F
(PID.TID 0000.0001)     ;
(PID.TID 0000.0001) selectVortScheme= /* V.I Scheme selector for Vorticity-Term */
(PID.TID 0000.0001)                       1
(PID.TID 0000.0001)    = 0 : enstrophy (Shallow-Water Eq.) conserving scheme by Sadourny, JAS 75
(PID.TID 0000.0001)    = 1 : same as 0 with modified hFac
(PID.TID 0000.0001)    = 2 : energy conserving scheme (used by Sadourny in JAS 75 paper)
(PID.TID 0000.0001)    = 3 : energy (general) and enstrophy (2D, nonDiv.) conserving scheme
(PID.TID 0000.0001)          from Sadourny (Burridge & Haseler, ECMWF Rep.4, 1977)
(PID.TID 0000.0001)    = 4 : shift 1/hFac from Vorticity to gU,gV tend. (Ang.Mom. conserving)
(PID.TID 0000.0001)     ;
(PID.TID 0000.0001) useJamartMomAdv= /* V.I Non-linear terms Jamart flag */
(PID.TID 0000.0001)                   F
(PID.TID 0000.0001)     ;
(PID.TID 0000.0001) upwindVorticity= /* V.I Upwind bias vorticity flag */
(PID.TID 0000.0001)                   F
(PID.TID 0000.0001)     ;
(PID.TID 0000.0001) highOrderVorticity= /* V.I High order vort. advect. flag */
(PID.TID 0000.0001)                   F
(PID.TID 0000.0001)     ;
(PID.TID 0000.0001) upwindShear= /* V.I Upwind vertical Shear advection flag */
(PID.TID 0000.0001)                   F
(PID.TID 0000.0001)     ;
(PID.TID 0000.0001) selectKEscheme= /* V.I Kinetic Energy scheme selector */
(PID.TID 0000.0001)                       0
(PID.TID 0000.0001)     ;
(PID.TID 0000.0001) momForcing =  /* Momentum forcing on/off flag */
(PID.TID 0000.0001)                   T
(PID.TID 0000.0001)     ;
(PID.TID 0000.0001) momTidalForcing = /* Momentum Tidal forcing on/off flag */
(PID.TID 0000.0001)                   T
(PID.TID 0000.0001)     ;
(PID.TID 0000.0001) momPressureForcing =  /* Momentum pressure term on/off flag */
(PID.TID 0000.0001)                   T
(PID.TID 0000.0001)     ;
(PID.TID 0000.0001) implicitIntGravWave= /* Implicit Internal Gravity Wave flag */
(PID.TID 0000.0001)                   F
(PID.TID 0000.0001)     ;
(PID.TID 0000.0001) staggerTimeStep =    /* Stagger time stepping on/off flag */
(PID.TID 0000.0001)                   T
(PID.TID 0000.0001)     ;
(PID.TID 0000.0001) doResetHFactors = /* reset thickness factors @ each time-step */
(PID.TID 0000.0001)                   T
(PID.TID 0000.0001)     ;
(PID.TID 0000.0001) multiDimAdvection =  /* enable/disable Multi-Dim Advection */
(PID.TID 0000.0001)                   T
(PID.TID 0000.0001)     ;
(PID.TID 0000.0001) useMultiDimAdvec =   /* Multi-Dim Advection is/is-not used */
(PID.TID 0000.0001)                   T
(PID.TID 0000.0001)     ;
(PID.TID 0000.0001) implicitDiffusion = /* Implicit Diffusion on/off flag */
(PID.TID 0000.0001)                   T
(PID.TID 0000.0001)     ;
(PID.TID 0000.0001) tempStepping =  /* Temperature equation on/off flag */
(PID.TID 0000.0001)                   T
(PID.TID 0000.0001)     ;
(PID.TID 0000.0001) tempAdvection = /* Temperature advection on/off flag */
(PID.TID 0000.0001)                   T
(PID.TID 0000.0001)     ;
(PID.TID 0000.0001) tempImplVertAdv = /* Temp. implicit vert. advection on/off */
(PID.TID 0000.0001)                   T
(PID.TID 0000.0001)     ;
(PID.TID 0000.0001) tempForcing  =  /* Temperature forcing on/off flag */
(PID.TID 0000.0001)                   T
(PID.TID 0000.0001)     ;
(PID.TID 0000.0001) selectPenetratingSW = /* short wave penetration selector */
(PID.TID 0000.0001)                       1
(PID.TID 0000.0001)     ;
(PID.TID 0000.0001) balanceQnet  =  /* balance net heat-flux on/off flag */
(PID.TID 0000.0001)                   F
(PID.TID 0000.0001)     ;
(PID.TID 0000.0001) doThetaClimRelax = /* apply SST relaxation on/off flag */
(PID.TID 0000.0001)                   F
(PID.TID 0000.0001)     ;
(PID.TID 0000.0001) balanceThetaClimRelax= /* balance SST relaxation on/off flag */
(PID.TID 0000.0001)                   F
(PID.TID 0000.0001)     ;
(PID.TID 0000.0001) tempIsActiveTr = /* Temp. is a dynamically Active Tracer */
(PID.TID 0000.0001)                   T
(PID.TID 0000.0001)     ;
(PID.TID 0000.0001) saltStepping =  /* Salinity equation on/off flag */
(PID.TID 0000.0001)                   T
(PID.TID 0000.0001)     ;
(PID.TID 0000.0001) saltAdvection = /* Salinity advection on/off flag */
(PID.TID 0000.0001)                   T
(PID.TID 0000.0001)     ;
(PID.TID 0000.0001) saltImplVertAdv = /* Sali. implicit vert. advection on/off */
(PID.TID 0000.0001)                   T
(PID.TID 0000.0001)     ;
(PID.TID 0000.0001) saltForcing  =  /* Salinity forcing on/off flag */
(PID.TID 0000.0001)                   T
(PID.TID 0000.0001)     ;
(PID.TID 0000.0001) selectBalanceEmPmR = /* balancing glob.mean EmPmR selector */
(PID.TID 0000.0001)                       1
(PID.TID 0000.0001)     ;
(PID.TID 0000.0001) doSaltClimRelax = /* apply SSS relaxation on/off flag */
(PID.TID 0000.0001)                   T
(PID.TID 0000.0001)     ;
(PID.TID 0000.0001) balanceSaltClimRelax= /* balance SSS relaxation on/off flag */
(PID.TID 0000.0001)                   T
(PID.TID 0000.0001)     ;
(PID.TID 0000.0001) saltIsActiveTr = /* Salt  is a dynamically Active Tracer */
(PID.TID 0000.0001)                   T
(PID.TID 0000.0001)     ;
(PID.TID 0000.0001)  readBinaryPrec = /* Precision used for reading binary files */
(PID.TID 0000.0001)                      32
(PID.TID 0000.0001)     ;
(PID.TID 0000.0001) writeBinaryPrec = /* Precision used for writing binary files */
(PID.TID 0000.0001)                      32
(PID.TID 0000.0001)     ;
(PID.TID 0000.0001) balancePrintMean = /* print means for balancing fluxes */
(PID.TID 0000.0001)                   F
(PID.TID 0000.0001)     ;
(PID.TID 0000.0001)  rwSuffixType =   /* select format of mds file suffix */
(PID.TID 0000.0001)                       0
(PID.TID 0000.0001)    = 0 : myIter (I10.10) ;   = 1 : 100*myTime (100th sec) ;
(PID.TID 0000.0001)    = 2 : myTime (seconds);   = 3 : myTime/360 (10th of hr);
(PID.TID 0000.0001)    = 4 : myTime/3600 (hours)
(PID.TID 0000.0001)     ;
(PID.TID 0000.0001)  globalFiles = /* write "global" (=not per tile) files */
(PID.TID 0000.0001)                   F
(PID.TID 0000.0001)     ;
(PID.TID 0000.0001)  useSingleCpuIO = /* only master MPI process does I/O */
(PID.TID 0000.0001)                   T
(PID.TID 0000.0001)     ;
(PID.TID 0000.0001)  useSingleCpuInput = /* only master process reads input */
(PID.TID 0000.0001)                   T
(PID.TID 0000.0001)     ;
(PID.TID 0000.0001) /* debLev[*]  : level of debug & auxiliary message printing */
(PID.TID 0000.0001) debLevZero =  0 ; /* level of disabled aux. msg printing */
(PID.TID 0000.0001)    debLevA =  1 ; /* level of minimum  aux. msg printing */
(PID.TID 0000.0001)    debLevB =  2 ; /* level of low aux. print (report read-file opening)*/
(PID.TID 0000.0001)    debLevC =  3 ; /* level of moderate debug prt (most pkgs debug msg) */
(PID.TID 0000.0001)    debLevD =  4 ; /* level of enhanced debug prt (add DEBUG_STATS prt) */
(PID.TID 0000.0001)    debLevE =  5 ; /* level of extensive debug printing */
(PID.TID 0000.0001) debugLevel =  /* select debug printing level */
(PID.TID 0000.0001)                       1
(PID.TID 0000.0001)     ;
(PID.TID 0000.0001)  plotLevel =  /* select PLOT_FIELD printing level */
(PID.TID 0000.0001)                       1
(PID.TID 0000.0001)     ;
(PID.TID 0000.0001) //
(PID.TID 0000.0001) // Elliptic solver(s) paramters ( PARM02 in namelist )
(PID.TID 0000.0001) //
(PID.TID 0000.0001) cg2dMaxIters =   /* Upper limit on 2d con. grad iterations  */
(PID.TID 0000.0001)                     300
(PID.TID 0000.0001)     ;
(PID.TID 0000.0001) cg2dMinItersNSA =   /* Minimum number of iterations of 2d con. grad solver  */
(PID.TID 0000.0001)                       0
(PID.TID 0000.0001)     ;
(PID.TID 0000.0001) cg2dUseMinResSol= /* use cg2d last-iter(=0) / min-resid.(=1) solution */
(PID.TID 0000.0001)                       0
(PID.TID 0000.0001)     ;
(PID.TID 0000.0001) cg2dTargetResidual =   /* 2d con. grad target residual  */
(PID.TID 0000.0001)                 1.000000000000000E-09
(PID.TID 0000.0001)     ;
(PID.TID 0000.0001) cg2dTargetResWunit =   /* CG2d target residual [W units] */
(PID.TID 0000.0001)                -1.000000000000000E+00
(PID.TID 0000.0001)     ;
(PID.TID 0000.0001) cg2dPreCondFreq =   /* Freq. for updating cg2d preconditioner */
(PID.TID 0000.0001)                       1
(PID.TID 0000.0001)     ;
(PID.TID 0000.0001) useSRCGSolver =  /* use single reduction CG solver(s) */
(PID.TID 0000.0001)                   F
(PID.TID 0000.0001)     ;
(PID.TID 0000.0001) useNSACGSolver =  /* use not-self-adjoint CG solver */
(PID.TID 0000.0001)                   F
(PID.TID 0000.0001)     ;
(PID.TID 0000.0001) printResidualFreq = /* Freq. for printing CG residual */
(PID.TID 0000.0001)                      -1
(PID.TID 0000.0001)     ;
(PID.TID 0000.0001) //
(PID.TID 0000.0001) // Time stepping paramters ( PARM03 in namelist )
(PID.TID 0000.0001) //
(PID.TID 0000.0001) deltaTMom =   /* Momentum equation timestep ( s ) */
(PID.TID 0000.0001)                 3.600000000000000E+03
(PID.TID 0000.0001)     ;
(PID.TID 0000.0001) deltaTFreeSurf = /* FreeSurface equation timestep ( s ) */
(PID.TID 0000.0001)                 3.600000000000000E+03
(PID.TID 0000.0001)     ;
(PID.TID 0000.0001) dTtracerLev =  /* Tracer equation timestep ( s ) */
(PID.TID 0000.0001)    50 @  3.600000000000000E+03              /* K =  1: 50 */
(PID.TID 0000.0001)     ;
(PID.TID 0000.0001) deltaTClock  =   /* Model clock timestep ( s ) */
(PID.TID 0000.0001)                 3.600000000000000E+03
(PID.TID 0000.0001)     ;
(PID.TID 0000.0001) cAdjFreq =   /* Convective adjustment interval ( s ) */
(PID.TID 0000.0001)                 0.000000000000000E+00
(PID.TID 0000.0001)     ;
(PID.TID 0000.0001) momForcingOutAB = /* =1: take Momentum Forcing out of Adams-Bash. stepping */
(PID.TID 0000.0001)                       1
(PID.TID 0000.0001)     ;
(PID.TID 0000.0001) tracForcingOutAB = /* =1: take T,S,pTr Forcing out of Adams-Bash. stepping */
(PID.TID 0000.0001)                       1
(PID.TID 0000.0001)     ;
(PID.TID 0000.0001) momDissip_In_AB = /* put Dissipation Tendency in Adams-Bash. stepping */
(PID.TID 0000.0001)                   F
(PID.TID 0000.0001)     ;
(PID.TID 0000.0001) doAB_onGtGs = /* apply AB on Tendencies (rather than on T,S)*/
(PID.TID 0000.0001)                   F
(PID.TID 0000.0001)     ;
(PID.TID 0000.0001) abEps =   /* Adams-Bashforth-2 stabilizing weight */
(PID.TID 0000.0001)                 1.000000000000000E-02
(PID.TID 0000.0001)     ;
(PID.TID 0000.0001) alph_AB =   /* Adams-Bashforth-3 primary factor */
(PID.TID 0000.0001)                 5.000000000000000E-01
(PID.TID 0000.0001)     ;
(PID.TID 0000.0001) beta_AB =   /* Adams-Bashforth-3 secondary factor */
(PID.TID 0000.0001)                 2.811050000000000E-01
(PID.TID 0000.0001)     ;
(PID.TID 0000.0001) startFromPickupAB2= /* start from AB-2 pickup */
(PID.TID 0000.0001)                   F
(PID.TID 0000.0001)     ;
(PID.TID 0000.0001) applyExchUV_early = /* Apply EXCH to U,V earlier in time-step */
(PID.TID 0000.0001)                   F
(PID.TID 0000.0001)     ;
(PID.TID 0000.0001) pickupStrictlyMatch= /* stop if pickup do not strictly match */
(PID.TID 0000.0001)                   T
(PID.TID 0000.0001)     ;
(PID.TID 0000.0001) nIter0   =   /* Run starting timestep number */
(PID.TID 0000.0001)                       0
(PID.TID 0000.0001)     ;
(PID.TID 0000.0001) nTimeSteps = /* Number of timesteps */
(PID.TID 0000.0001)                       8
(PID.TID 0000.0001)     ;
(PID.TID 0000.0001) nEndIter =   /* Run ending timestep number */
(PID.TID 0000.0001)                       8
(PID.TID 0000.0001)     ;
(PID.TID 0000.0001) baseTime =   /* Model base time ( s ) */
(PID.TID 0000.0001)                 0.000000000000000E+00
(PID.TID 0000.0001)     ;
(PID.TID 0000.0001) startTime =  /* Run start time ( s ) */
(PID.TID 0000.0001)                 0.000000000000000E+00
(PID.TID 0000.0001)     ;
(PID.TID 0000.0001) endTime  =   /* Integration ending time ( s ) */
(PID.TID 0000.0001)                 2.880000000000000E+04
(PID.TID 0000.0001)     ;
(PID.TID 0000.0001) pChkPtFreq = /* Permanent restart/pickup file interval ( s ) */
(PID.TID 0000.0001)                 3.153600000000000E+07
(PID.TID 0000.0001)     ;
(PID.TID 0000.0001) chkPtFreq  = /* Rolling restart/pickup file interval ( s ) */
(PID.TID 0000.0001)                 3.153600000000000E+07
(PID.TID 0000.0001)     ;
(PID.TID 0000.0001) pickup_write_mdsio =   /* Model IO flag. */
(PID.TID 0000.0001)                   T
(PID.TID 0000.0001)     ;
(PID.TID 0000.0001) pickup_read_mdsio =   /* Model IO flag. */
(PID.TID 0000.0001)                   T
(PID.TID 0000.0001)     ;
(PID.TID 0000.0001) writePickupAtEnd =   /* Model IO flag. */
(PID.TID 0000.0001)                   T
(PID.TID 0000.0001)     ;
(PID.TID 0000.0001) dumpFreq =   /* Model state write out interval ( s ). */
(PID.TID 0000.0001)                 0.000000000000000E+00
(PID.TID 0000.0001)     ;
(PID.TID 0000.0001) dumpInitAndLast= /* write out Initial & Last iter. model state */
(PID.TID 0000.0001)                   T
(PID.TID 0000.0001)     ;
(PID.TID 0000.0001) snapshot_mdsio =   /* Model IO flag. */
(PID.TID 0000.0001)                   T
(PID.TID 0000.0001)     ;
(PID.TID 0000.0001) monitorFreq =   /* Monitor output interval ( s ). */
(PID.TID 0000.0001)                 7.200000000000000E+03
(PID.TID 0000.0001)     ;
(PID.TID 0000.0001) monitorSelect = /* select group of variables to monitor */
(PID.TID 0000.0001)                       2
(PID.TID 0000.0001)     ;
(PID.TID 0000.0001) monitor_stdio =   /* Model IO flag. */
(PID.TID 0000.0001)                   T
(PID.TID 0000.0001)     ;
(PID.TID 0000.0001) externForcingPeriod =   /* forcing period (s) */
(PID.TID 0000.0001)                 0.000000000000000E+00
(PID.TID 0000.0001)     ;
(PID.TID 0000.0001) externForcingCycle =   /* period of the cyle (s). */
(PID.TID 0000.0001)                 0.000000000000000E+00
(PID.TID 0000.0001)     ;
(PID.TID 0000.0001) tauThetaClimRelax =   /* relaxation time scale (s) */
(PID.TID 0000.0001)                 0.000000000000000E+00
(PID.TID 0000.0001)     ;
(PID.TID 0000.0001) tauSaltClimRelax =   /* relaxation time scale (s) */
(PID.TID 0000.0001)                 2.592000000000000E+07
(PID.TID 0000.0001)     ;
(PID.TID 0000.0001) latBandClimRelax =   /* max. Lat. where relaxation */
(PID.TID 0000.0001)                 1.800000000000000E+02
(PID.TID 0000.0001)     ;
(PID.TID 0000.0001) //
(PID.TID 0000.0001) // Gridding paramters ( PARM04 in namelist )
(PID.TID 0000.0001) //
(PID.TID 0000.0001) usingCartesianGrid = /* Cartesian coordinates flag ( True/False ) */
(PID.TID 0000.0001)                   F
(PID.TID 0000.0001)     ;
(PID.TID 0000.0001) usingCylindricalGrid = /* Cylindrical coordinates flag ( True/False ) */
(PID.TID 0000.0001)                   F
(PID.TID 0000.0001)     ;
(PID.TID 0000.0001) usingSphericalPolarGrid = /* Spherical coordinates flag ( True/False ) */
(PID.TID 0000.0001)                   F
(PID.TID 0000.0001)     ;
(PID.TID 0000.0001) usingCurvilinearGrid = /* Curvilinear coordinates flag ( True/False ) */
(PID.TID 0000.0001)                   T
(PID.TID 0000.0001)     ;
(PID.TID 0000.0001) useMin4hFacEdges = /* set hFacW,S as minimum of adjacent hFacC factor */
(PID.TID 0000.0001)                   F
(PID.TID 0000.0001)     ;
(PID.TID 0000.0001) interViscAr_pCell = /* account for partial-cell in interior vert. viscosity */
(PID.TID 0000.0001)                   F
(PID.TID 0000.0001)     ;
(PID.TID 0000.0001) interDiffKr_pCell = /* account for partial-cell in interior vert. diffusion */
(PID.TID 0000.0001)                   F
(PID.TID 0000.0001)     ;
(PID.TID 0000.0001) pCellMix_select = /* option to enhance mixing near surface & bottom */
(PID.TID 0000.0001)                       0
(PID.TID 0000.0001)     ;
(PID.TID 0000.0001) selectSigmaCoord = /* Hybrid-Sigma Vert. Coordinate option */
(PID.TID 0000.0001)                       0
(PID.TID 0000.0001)     ;
(PID.TID 0000.0001) rSigmaBnd = /* r/sigma transition ( units of r ==  m ) */
(PID.TID 0000.0001)                 1.234567000000000E+05
(PID.TID 0000.0001)     ;
(PID.TID 0000.0001) rkSign =   /* index orientation relative to vertical coordinate */
(PID.TID 0000.0001)                -1.000000000000000E+00
(PID.TID 0000.0001)     ;
(PID.TID 0000.0001) gravitySign = /* gravity orientation relative to vertical coordinate */
(PID.TID 0000.0001)                -1.000000000000000E+00
(PID.TID 0000.0001)     ;
(PID.TID 0000.0001) seaLev_Z =  /* reference height of sea-level [m] */
(PID.TID 0000.0001)                 0.000000000000000E+00
(PID.TID 0000.0001)     ;
(PID.TID 0000.0001) top_Pres =  /* reference pressure at the top [Pa] */
(PID.TID 0000.0001)                 0.000000000000000E+00
(PID.TID 0000.0001)     ;
(PID.TID 0000.0001) mass2rUnit = /* convert mass per unit area [kg/m2] to r-units [m] */
(PID.TID 0000.0001)                 9.718172983479105E-04
(PID.TID 0000.0001)     ;
(PID.TID 0000.0001) rUnit2mass = /* convert r-units [m] to mass per unit area [kg/m2] */
(PID.TID 0000.0001)                 1.029000000000000E+03
(PID.TID 0000.0001)     ;
(PID.TID 0000.0001) drC =   /* C spacing ( units of r ) */
(PID.TID 0000.0001)                 5.000000000000000E+00,      /* K =  1 */
(PID.TID 0000.0001)     6 @  1.000000000000000E+01,             /* K =  2:  7 */
(PID.TID 0000.0001)                 1.000500000000000E+01,      /* K =  8 */
(PID.TID 0000.0001)                 1.002000000000000E+01,      /* K =  9 */
(PID.TID 0000.0001)                 1.007000000000000E+01,      /* K = 10 */
(PID.TID 0000.0001)                 1.021500000000000E+01,      /* K = 11 */
(PID.TID 0000.0001)                 1.056000000000000E+01,      /* K = 12 */
(PID.TID 0000.0001)                 1.128000000000000E+01,      /* K = 13 */
(PID.TID 0000.0001)                 1.259000000000000E+01,      /* K = 14 */
(PID.TID 0000.0001)                 1.473000000000000E+01,      /* K = 15 */
(PID.TID 0000.0001)                 1.793000000000000E+01,      /* K = 16 */
(PID.TID 0000.0001)                 2.233500000000000E+01,      /* K = 17 */
(PID.TID 0000.0001)                 2.797500000000000E+01,      /* K = 18 */
(PID.TID 0000.0001)                 3.476000000000001E+01,      /* K = 19 */
(PID.TID 0000.0001)                 4.246000000000000E+01,      /* K = 20 */
(PID.TID 0000.0001)                 5.075000000000000E+01,      /* K = 21 */
(PID.TID 0000.0001)                 5.925000000000000E+01,      /* K = 22 */
(PID.TID 0000.0001)                 6.753999999999999E+01,      /* K = 23 */
(PID.TID 0000.0001)                 7.524000000000001E+01,      /* K = 24 */
(PID.TID 0000.0001)                 8.202500000000001E+01,      /* K = 25 */
(PID.TID 0000.0001)                 8.766500000000001E+01,      /* K = 26 */
(PID.TID 0000.0001)                 9.206999999999999E+01,      /* K = 27 */
(PID.TID 0000.0001)                 9.527000000000000E+01,      /* K = 28 */
(PID.TID 0000.0001)                 9.741499999999999E+01,      /* K = 29 */
(PID.TID 0000.0001)                 9.875000000000000E+01,      /* K = 30 */
(PID.TID 0000.0001)                 9.963000000000000E+01,      /* K = 31 */
(PID.TID 0000.0001)                 1.006700000000000E+02,      /* K = 32 */
(PID.TID 0000.0001)                 1.029450000000000E+02,      /* K = 33 */
(PID.TID 0000.0001)                 1.079450000000000E+02,      /* K = 34 */
(PID.TID 0000.0001)                 1.170800000000000E+02,      /* K = 35 */
(PID.TID 0000.0001)                 1.309600000000000E+02,      /* K = 36 */
(PID.TID 0000.0001)                 1.490150000000000E+02,      /* K = 37 */
(PID.TID 0000.0001)                 1.698850000000000E+02,      /* K = 38 */
(PID.TID 0000.0001)                 1.921900000000000E+02,      /* K = 39 */
(PID.TID 0000.0001)                 2.150250000000000E+02,      /* K = 40 */
(PID.TID 0000.0001)                 2.380000000000000E+02,      /* K = 41 */
(PID.TID 0000.0001)                 2.610000000000000E+02,      /* K = 42 */
(PID.TID 0000.0001)                 2.840000000000000E+02,      /* K = 43 */
(PID.TID 0000.0001)                 3.070000000000000E+02,      /* K = 44 */
(PID.TID 0000.0001)                 3.300000000000000E+02,      /* K = 45 */
(PID.TID 0000.0001)                 3.530000000000000E+02,      /* K = 46 */
(PID.TID 0000.0001)                 3.760000000000000E+02,      /* K = 47 */
(PID.TID 0000.0001)                 3.990000000000000E+02,      /* K = 48 */
(PID.TID 0000.0001)                 4.220000000000000E+02,      /* K = 49 */
(PID.TID 0000.0001)                 4.450000000000000E+02,      /* K = 50 */
(PID.TID 0000.0001)                 2.282500000000000E+02       /* K = 51 */
(PID.TID 0000.0001)     ;
(PID.TID 0000.0001) drF =   /* W spacing ( units of r ) */
(PID.TID 0000.0001)     7 @  1.000000000000000E+01,             /* K =  1:  7 */
(PID.TID 0000.0001)                 1.001000000000000E+01,      /* K =  8 */
(PID.TID 0000.0001)                 1.003000000000000E+01,      /* K =  9 */
(PID.TID 0000.0001)                 1.011000000000000E+01,      /* K = 10 */
(PID.TID 0000.0001)                 1.032000000000000E+01,      /* K = 11 */
(PID.TID 0000.0001)                 1.080000000000000E+01,      /* K = 12 */
(PID.TID 0000.0001)                 1.176000000000000E+01,      /* K = 13 */
(PID.TID 0000.0001)                 1.342000000000000E+01,      /* K = 14 */
(PID.TID 0000.0001)                 1.604000000000000E+01,      /* K = 15 */
(PID.TID 0000.0001)                 1.982000000000000E+01,      /* K = 16 */
(PID.TID 0000.0001)                 2.485000000000000E+01,      /* K = 17 */
(PID.TID 0000.0001)                 3.110000000000000E+01,      /* K = 18 */
(PID.TID 0000.0001)                 3.842000000000000E+01,      /* K = 19 */
(PID.TID 0000.0001)                 4.650000000000000E+01,      /* K = 20 */
(PID.TID 0000.0001)                 5.500000000000000E+01,      /* K = 21 */
(PID.TID 0000.0001)                 6.350000000000000E+01,      /* K = 22 */
(PID.TID 0000.0001)                 7.158000000000000E+01,      /* K = 23 */
(PID.TID 0000.0001)                 7.890000000000001E+01,      /* K = 24 */
(PID.TID 0000.0001)                 8.515000000000001E+01,      /* K = 25 */
(PID.TID 0000.0001)                 9.018000000000001E+01,      /* K = 26 */
(PID.TID 0000.0001)                 9.395999999999999E+01,      /* K = 27 */
(PID.TID 0000.0001)                 9.658000000000000E+01,      /* K = 28 */
(PID.TID 0000.0001)                 9.825000000000000E+01,      /* K = 29 */
(PID.TID 0000.0001)                 9.925000000000000E+01,      /* K = 30 */
(PID.TID 0000.0001)                 1.000100000000000E+02,      /* K = 31 */
(PID.TID 0000.0001)                 1.013300000000000E+02,      /* K = 32 */
(PID.TID 0000.0001)                 1.045600000000000E+02,      /* K = 33 */
(PID.TID 0000.0001)                 1.113300000000000E+02,      /* K = 34 */
(PID.TID 0000.0001)                 1.228300000000000E+02,      /* K = 35 */
(PID.TID 0000.0001)                 1.390900000000000E+02,      /* K = 36 */
(PID.TID 0000.0001)                 1.589400000000000E+02,      /* K = 37 */
(PID.TID 0000.0001)                 1.808300000000000E+02,      /* K = 38 */
(PID.TID 0000.0001)                 2.035500000000000E+02,      /* K = 39 */
(PID.TID 0000.0001)                 2.265000000000000E+02,      /* K = 40 */
(PID.TID 0000.0001)                 2.495000000000000E+02,      /* K = 41 */
(PID.TID 0000.0001)                 2.725000000000000E+02,      /* K = 42 */
(PID.TID 0000.0001)                 2.955000000000000E+02,      /* K = 43 */
(PID.TID 0000.0001)                 3.185000000000000E+02,      /* K = 44 */
(PID.TID 0000.0001)                 3.415000000000000E+02,      /* K = 45 */
(PID.TID 0000.0001)                 3.645000000000000E+02,      /* K = 46 */
(PID.TID 0000.0001)                 3.875000000000000E+02,      /* K = 47 */
(PID.TID 0000.0001)                 4.105000000000000E+02,      /* K = 48 */
(PID.TID 0000.0001)                 4.335000000000000E+02,      /* K = 49 */
(PID.TID 0000.0001)                 4.565000000000000E+02       /* K = 50 */
(PID.TID 0000.0001)     ;
(PID.TID 0000.0001) radius_fromHorizGrid = /* sphere Radius of input horiz. grid */
(PID.TID 0000.0001)                 6.370000000000000E+06
(PID.TID 0000.0001)     ;
(PID.TID 0000.0001) rSphere =  /* Radius ( ignored - cartesian, m - spherical ) */
(PID.TID 0000.0001)                 6.370000000000000E+06
(PID.TID 0000.0001)     ;
(PID.TID 0000.0001) deepAtmosphere = /* Deep/Shallow Atmosphere flag (True/False) */
(PID.TID 0000.0001)                   F
(PID.TID 0000.0001)     ;
(PID.TID 0000.0001) xC =  /* xC(:,1,:,1) : P-point X coord ( deg. or m if cartesian) */
(PID.TID 0000.0001)                -4.439521994760536E+01,      /* I =  1 */
(PID.TID 0000.0001)                -4.295641272275883E+01,      /* I =  2 */
(PID.TID 0000.0001)                -4.122055553388957E+01,      /* I =  3 */
(PID.TID 0000.0001)                -3.923446288487304E+01,      /* I =  4 */
(PID.TID 0000.0001)                -3.702585158682200E+01,      /* I =  5 */
(PID.TID 0000.0001)                -3.461179367094151E+01,      /* I =  6 */
(PID.TID 0000.0001)                -3.200434569041793E+01,      /* I =  7 */
(PID.TID 0000.0001)                -2.921355965632675E+01,      /* I =  8 */
(PID.TID 0000.0001)                -2.624932223028290E+01,      /* I =  9 */
(PID.TID 0000.0001)                -2.312261250426344E+01,      /* I = 10 */
(PID.TID 0000.0001)                -1.984640717127058E+01,      /* I = 11 */
(PID.TID 0000.0001)                -1.643630800555134E+01,      /* I = 12 */
(PID.TID 0000.0001)                -1.291089806302069E+01,      /* I = 13 */
(PID.TID 0000.0001)                -9.291807802719402E+00,      /* I = 14 */
(PID.TID 0000.0001)                -5.603475335822332E+00,      /* I = 15 */
(PID.TID 0000.0001)                -1.872608513033445E+00,      /* I = 16 */
(PID.TID 0000.0001)                 1.872608513033445E+00,      /* I = 17 */
(PID.TID 0000.0001)                 5.603475335822332E+00,      /* I = 18 */
(PID.TID 0000.0001)                 9.291807802719402E+00,      /* I = 19 */
(PID.TID 0000.0001)                 1.291089806302069E+01,      /* I = 20 */
(PID.TID 0000.0001)                 1.643630800555134E+01,      /* I = 21 */
(PID.TID 0000.0001)                 1.984640717127058E+01,      /* I = 22 */
(PID.TID 0000.0001)                 2.312261250426344E+01,      /* I = 23 */
(PID.TID 0000.0001)                 2.624932223028290E+01,      /* I = 24 */
(PID.TID 0000.0001)                 2.921355965632675E+01,      /* I = 25 */
(PID.TID 0000.0001)                 3.200434569041793E+01,      /* I = 26 */
(PID.TID 0000.0001)                 3.461179367094151E+01,      /* I = 27 */
(PID.TID 0000.0001)                 3.702585158682200E+01,      /* I = 28 */
(PID.TID 0000.0001)                 3.923446288487304E+01,      /* I = 29 */
(PID.TID 0000.0001)                 4.122055553388957E+01,      /* I = 30 */
(PID.TID 0000.0001)                 4.295641272275883E+01,      /* I = 31 */
(PID.TID 0000.0001)                 4.439521994760536E+01,      /* I = 32 */
(PID.TID 0000.0001)                -4.364490324992833E+01,      /* I = 33 */
(PID.TID 0000.0001)                -4.093268771156353E+01,      /* I = 34 */
(PID.TID 0000.0001)                -3.821449311785297E+01,      /* I = 35 */
(PID.TID 0000.0001)                -3.548661856694081E+01,      /* I = 36 */
(PID.TID 0000.0001)                -3.274577371214319E+01,      /* I = 37 */
(PID.TID 0000.0001)                -2.998921061819286E+01,      /* I = 38 */
(PID.TID 0000.0001)                -2.721482732194908E+01,      /* I = 39 */
(PID.TID 0000.0001)                -2.442123987207341E+01,      /* I = 40 */
(PID.TID 0000.0001)                -2.160782193728863E+01,      /* I = 41 */
(PID.TID 0000.0001)                -1.877471294668040E+01,      /* I = 42 */
(PID.TID 0000.0001)                -1.592279705047260E+01,      /* I = 43 */
(PID.TID 0000.0001)                -1.305365599512185E+01,      /* I = 44 */
(PID.TID 0000.0001)                -1.016949940404567E+01,      /* I = 45 */
(PID.TID 0000.0001)                -7.273076082698362E+00,      /* I = 46 */
(PID.TID 0000.0001)                -4.367569947789942E+00,      /* I = 47 */
(PID.TID 0000.0001)                -1.456484104946475E+00       /* I = 48 */
(PID.TID 0000.0001)     ;
(PID.TID 0000.0001) yC =  /* yC(1,:,1,:) : P-point Y coord ( deg. or m if cartesian) */
(PID.TID 0000.0001)                -3.497677942598243E+01,      /* J =  1 */
(PID.TID 0000.0001)                -3.374005967394886E+01,      /* J =  2 */
(PID.TID 0000.0001)                -3.220655175667454E+01,      /* J =  3 */
(PID.TID 0000.0001)                -3.045756348838641E+01,      /* J =  4 */
(PID.TID 0000.0001)                -2.853728129852918E+01,      /* J =  5 */
(PID.TID 0000.0001)                -2.647426640173173E+01,      /* J =  6 */
(PID.TID 0000.0001)                -2.428936657094636E+01,      /* J =  7 */
(PID.TID 0000.0001)                -2.199915808312262E+01,      /* J =  8 */
(PID.TID 0000.0001)                -1.961768597440146E+01,      /* J =  9 */
(PID.TID 0000.0001)                -1.715743888281371E+01,      /* J = 10 */
(PID.TID 0000.0001)                -1.462993396899330E+01,      /* J = 11 */
(PID.TID 0000.0001)                -1.204608340464756E+01,      /* J = 12 */
(PID.TID 0000.0001)                -9.416429130284818E+00,      /* J = 13 */
(PID.TID 0000.0001)                -6.751293662992216E+00,      /* J = 14 */
(PID.TID 0000.0001)                -4.060875511835959E+00,      /* J = 15 */
(PID.TID 0000.0001)                -1.355307764409121E+00       /* J = 16 */
(PID.TID 0000.0001)     ;
(PID.TID 0000.0001) rcoord = /* P-point R coordinate (  units of r ) */
(PID.TID 0000.0001)                -5.000000000000000E+00,      /* K =  1 */
(PID.TID 0000.0001)                -1.500000000000000E+01,      /* K =  2 */
(PID.TID 0000.0001)                -2.500000000000000E+01,      /* K =  3 */
(PID.TID 0000.0001)                -3.500000000000000E+01,      /* K =  4 */
(PID.TID 0000.0001)                -4.500000000000000E+01,      /* K =  5 */
(PID.TID 0000.0001)                -5.500000000000000E+01,      /* K =  6 */
(PID.TID 0000.0001)                -6.500000000000000E+01,      /* K =  7 */
(PID.TID 0000.0001)                -7.500500000000000E+01,      /* K =  8 */
(PID.TID 0000.0001)                -8.502499999999999E+01,      /* K =  9 */
(PID.TID 0000.0001)                -9.509500000000000E+01,      /* K = 10 */
(PID.TID 0000.0001)                -1.053100000000000E+02,      /* K = 11 */
(PID.TID 0000.0001)                -1.158700000000000E+02,      /* K = 12 */
(PID.TID 0000.0001)                -1.271500000000000E+02,      /* K = 13 */
(PID.TID 0000.0001)                -1.397400000000000E+02,      /* K = 14 */
(PID.TID 0000.0001)                -1.544700000000000E+02,      /* K = 15 */
(PID.TID 0000.0001)                -1.724000000000000E+02,      /* K = 16 */
(PID.TID 0000.0001)                -1.947350000000000E+02,      /* K = 17 */
(PID.TID 0000.0001)                -2.227100000000000E+02,      /* K = 18 */
(PID.TID 0000.0001)                -2.574700000000000E+02,      /* K = 19 */
(PID.TID 0000.0001)                -2.999300000000000E+02,      /* K = 20 */
(PID.TID 0000.0001)                -3.506800000000000E+02,      /* K = 21 */
(PID.TID 0000.0001)                -4.099300000000000E+02,      /* K = 22 */
(PID.TID 0000.0001)                -4.774700000000000E+02,      /* K = 23 */
(PID.TID 0000.0001)                -5.527100000000000E+02,      /* K = 24 */
(PID.TID 0000.0001)                -6.347350000000000E+02,      /* K = 25 */
(PID.TID 0000.0001)                -7.224000000000000E+02,      /* K = 26 */
(PID.TID 0000.0001)                -8.144700000000000E+02,      /* K = 27 */
(PID.TID 0000.0001)                -9.097400000000000E+02,      /* K = 28 */
(PID.TID 0000.0001)                -1.007155000000000E+03,      /* K = 29 */
(PID.TID 0000.0001)                -1.105905000000000E+03,      /* K = 30 */
(PID.TID 0000.0001)                -1.205535000000000E+03,      /* K = 31 */
(PID.TID 0000.0001)                -1.306205000000000E+03,      /* K = 32 */
(PID.TID 0000.0001)                -1.409150000000000E+03,      /* K = 33 */
(PID.TID 0000.0001)                -1.517095000000000E+03,      /* K = 34 */
(PID.TID 0000.0001)                -1.634175000000000E+03,      /* K = 35 */
(PID.TID 0000.0001)                -1.765135000000000E+03,      /* K = 36 */
(PID.TID 0000.0001)                -1.914150000000000E+03,      /* K = 37 */
(PID.TID 0000.0001)                -2.084035000000000E+03,      /* K = 38 */
(PID.TID 0000.0001)                -2.276225000000000E+03,      /* K = 39 */
(PID.TID 0000.0001)                -2.491250000000000E+03,      /* K = 40 */
(PID.TID 0000.0001)                -2.729250000000000E+03,      /* K = 41 */
(PID.TID 0000.0001)                -2.990250000000000E+03,      /* K = 42 */
(PID.TID 0000.0001)                -3.274250000000000E+03,      /* K = 43 */
(PID.TID 0000.0001)                -3.581250000000000E+03,      /* K = 44 */
(PID.TID 0000.0001)                -3.911250000000000E+03,      /* K = 45 */
(PID.TID 0000.0001)                -4.264250000000000E+03,      /* K = 46 */
(PID.TID 0000.0001)                -4.640250000000000E+03,      /* K = 47 */
(PID.TID 0000.0001)                -5.039250000000000E+03,      /* K = 48 */
(PID.TID 0000.0001)                -5.461250000000000E+03,      /* K = 49 */
(PID.TID 0000.0001)                -5.906250000000000E+03       /* K = 50 */
(PID.TID 0000.0001)     ;
(PID.TID 0000.0001) rF =   /* W-Interf. R coordinate (  units of r ) */
(PID.TID 0000.0001)                 0.000000000000000E+00,      /* K =  1 */
(PID.TID 0000.0001)                -1.000000000000000E+01,      /* K =  2 */
(PID.TID 0000.0001)                -2.000000000000000E+01,      /* K =  3 */
(PID.TID 0000.0001)                -3.000000000000000E+01,      /* K =  4 */
(PID.TID 0000.0001)                -4.000000000000000E+01,      /* K =  5 */
(PID.TID 0000.0001)                -5.000000000000000E+01,      /* K =  6 */
(PID.TID 0000.0001)                -6.000000000000000E+01,      /* K =  7 */
(PID.TID 0000.0001)                -7.000000000000000E+01,      /* K =  8 */
(PID.TID 0000.0001)                -8.001000000000001E+01,      /* K =  9 */
(PID.TID 0000.0001)                -9.004000000000001E+01,      /* K = 10 */
(PID.TID 0000.0001)                -1.001500000000000E+02,      /* K = 11 */
(PID.TID 0000.0001)                -1.104700000000000E+02,      /* K = 12 */
(PID.TID 0000.0001)                -1.212700000000000E+02,      /* K = 13 */
(PID.TID 0000.0001)                -1.330300000000000E+02,      /* K = 14 */
(PID.TID 0000.0001)                -1.464500000000000E+02,      /* K = 15 */
(PID.TID 0000.0001)                -1.624900000000000E+02,      /* K = 16 */
(PID.TID 0000.0001)                -1.823100000000000E+02,      /* K = 17 */
(PID.TID 0000.0001)                -2.071600000000000E+02,      /* K = 18 */
(PID.TID 0000.0001)                -2.382600000000000E+02,      /* K = 19 */
(PID.TID 0000.0001)                -2.766799999999999E+02,      /* K = 20 */
(PID.TID 0000.0001)                -3.231799999999999E+02,      /* K = 21 */
(PID.TID 0000.0001)                -3.781799999999999E+02,      /* K = 22 */
(PID.TID 0000.0001)                -4.416799999999999E+02,      /* K = 23 */
(PID.TID 0000.0001)                -5.132600000000000E+02,      /* K = 24 */
(PID.TID 0000.0001)                -5.921600000000000E+02,      /* K = 25 */
(PID.TID 0000.0001)                -6.773099999999999E+02,      /* K = 26 */
(PID.TID 0000.0001)                -7.674900000000000E+02,      /* K = 27 */
(PID.TID 0000.0001)                -8.614500000000000E+02,      /* K = 28 */
(PID.TID 0000.0001)                -9.580300000000001E+02,      /* K = 29 */
(PID.TID 0000.0001)                -1.056280000000000E+03,      /* K = 30 */
(PID.TID 0000.0001)                -1.155530000000000E+03,      /* K = 31 */
(PID.TID 0000.0001)                -1.255540000000000E+03,      /* K = 32 */
(PID.TID 0000.0001)                -1.356870000000000E+03,      /* K = 33 */
(PID.TID 0000.0001)                -1.461430000000000E+03,      /* K = 34 */
(PID.TID 0000.0001)                -1.572760000000000E+03,      /* K = 35 */
(PID.TID 0000.0001)                -1.695590000000000E+03,      /* K = 36 */
(PID.TID 0000.0001)                -1.834680000000000E+03,      /* K = 37 */
(PID.TID 0000.0001)                -1.993620000000000E+03,      /* K = 38 */
(PID.TID 0000.0001)                -2.174450000000000E+03,      /* K = 39 */
(PID.TID 0000.0001)                -2.378000000000000E+03,      /* K = 40 */
(PID.TID 0000.0001)                -2.604500000000000E+03,      /* K = 41 */
(PID.TID 0000.0001)                -2.854000000000000E+03,      /* K = 42 */
(PID.TID 0000.0001)                -3.126500000000000E+03,      /* K = 43 */
(PID.TID 0000.0001)                -3.422000000000000E+03,      /* K = 44 */
(PID.TID 0000.0001)                -3.740500000000000E+03,      /* K = 45 */
(PID.TID 0000.0001)                -4.082000000000000E+03,      /* K = 46 */
(PID.TID 0000.0001)                -4.446500000000000E+03,      /* K = 47 */
(PID.TID 0000.0001)                -4.834000000000000E+03,      /* K = 48 */
(PID.TID 0000.0001)                -5.244500000000000E+03,      /* K = 49 */
(PID.TID 0000.0001)                -5.678000000000000E+03,      /* K = 50 */
(PID.TID 0000.0001)                -6.134500000000000E+03       /* K = 51 */
(PID.TID 0000.0001)     ;
(PID.TID 0000.0001) deepFacC = /* deep-model grid factor @ cell-Center (-) */
(PID.TID 0000.0001)    50 @  1.000000000000000E+00              /* K =  1: 50 */
(PID.TID 0000.0001)     ;
(PID.TID 0000.0001) deepFacF = /* deep-model grid factor @ W-Interface (-) */
(PID.TID 0000.0001)    51 @  1.000000000000000E+00              /* K =  1: 51 */
(PID.TID 0000.0001)     ;
(PID.TID 0000.0001) rotateGrid = /* use rotated grid ( True/False ) */
(PID.TID 0000.0001)                   F
(PID.TID 0000.0001)     ;
(PID.TID 0000.0001) phiEuler = /* Euler angle, rotation about original z-coordinate [rad] */
(PID.TID 0000.0001)                 0.000000000000000E+00
(PID.TID 0000.0001)     ;
(PID.TID 0000.0001) thetaEuler = /* Euler angle, rotation about new x-coordinate [rad] */
(PID.TID 0000.0001)                 0.000000000000000E+00
(PID.TID 0000.0001)     ;
(PID.TID 0000.0001) psiEuler = /* Euler angle, rotation about new z-coordinate [rad] */
(PID.TID 0000.0001)                 0.000000000000000E+00
(PID.TID 0000.0001)     ;
(PID.TID 0000.0001) dxF =  /* dxF(:,1,:,1) ( units: m ) */
(PID.TID 0000.0001)                 1.202082051331828E+05,      /* I =  1 */
(PID.TID 0000.0001)                 1.563594089971120E+05,      /* I =  2 */
(PID.TID 0000.0001)                 1.835530058121492E+05,      /* I =  3 */
(PID.TID 0000.0001)                 2.045883481718707E+05,      /* I =  4 */
(PID.TID 0000.0001)                 2.218350349844185E+05,      /* I =  5 */
(PID.TID 0000.0001)                 2.364352994647058E+05,      /* I =  6 */
(PID.TID 0000.0001)                 2.490022710862746E+05,      /* I =  7 */
(PID.TID 0000.0001)                 2.598919724358304E+05,      /* I =  8 */
(PID.TID 0000.0001)                 2.693210245495156E+05,      /* I =  9 */
(PID.TID 0000.0001)                 2.774243179696503E+05,      /* I = 10 */
(PID.TID 0000.0001)                 2.842862532064524E+05,      /* I = 11 */
(PID.TID 0000.0001)                 2.899590699694043E+05,      /* I = 12 */
(PID.TID 0000.0001)                 2.944742915095688E+05,      /* I = 13 */
(PID.TID 0000.0001)                 2.978501920522794E+05,      /* I = 14 */
(PID.TID 0000.0001)                 3.000967749619962E+05,      /* I = 15 */
(PID.TID 0000.0001)     2 @  3.012190981969055E+05,             /* I = 16: 17 */
(PID.TID 0000.0001)                 3.000967749619962E+05,      /* I = 18 */
(PID.TID 0000.0001)                 2.978501920522794E+05,      /* I = 19 */
(PID.TID 0000.0001)                 2.944742915095688E+05,      /* I = 20 */
(PID.TID 0000.0001)                 2.899590699694043E+05,      /* I = 21 */
(PID.TID 0000.0001)                 2.842862532064524E+05,      /* I = 22 */
(PID.TID 0000.0001)                 2.774243179696503E+05,      /* I = 23 */
(PID.TID 0000.0001)                 2.693210245495156E+05,      /* I = 24 */
(PID.TID 0000.0001)                 2.598919724358304E+05,      /* I = 25 */
(PID.TID 0000.0001)                 2.490022710862746E+05,      /* I = 26 */
(PID.TID 0000.0001)                 2.364352994647058E+05,      /* I = 27 */
(PID.TID 0000.0001)                 2.218350349844185E+05,      /* I = 28 */
(PID.TID 0000.0001)                 2.045883481718707E+05,      /* I = 29 */
(PID.TID 0000.0001)                 1.835530058121492E+05,      /* I = 30 */
(PID.TID 0000.0001)                 1.563594089971120E+05,      /* I = 31 */
(PID.TID 0000.0001)                 1.202082051331828E+05,      /* I = 32 */
(PID.TID 0000.0001)                 3.012844832048790E+05,      /* I = 33 */
(PID.TID 0000.0001)                 3.017314519159184E+05,      /* I = 34 */
(PID.TID 0000.0001)                 3.026061571839506E+05,      /* I = 35 */
(PID.TID 0000.0001)                 3.038712499122208E+05,      /* I = 36 */
(PID.TID 0000.0001)                 3.054733694195115E+05,      /* I = 37 */
(PID.TID 0000.0001)                 3.073460170047538E+05,      /* I = 38 */
(PID.TID 0000.0001)                 3.094129252024922E+05,      /* I = 39 */
(PID.TID 0000.0001)                 3.115916488673079E+05,      /* I = 40 */
(PID.TID 0000.0001)                 3.137971415338805E+05,      /* I = 41 */
(PID.TID 0000.0001)                 3.159451387866950E+05,      /* I = 42 */
(PID.TID 0000.0001)                 3.179552321069062E+05,      /* I = 43 */
(PID.TID 0000.0001)                 3.197535693737994E+05,      /* I = 44 */
(PID.TID 0000.0001)                 3.212751560265627E+05,      /* I = 45 */
(PID.TID 0000.0001)                 3.224657535572011E+05,      /* I = 46 */
(PID.TID 0000.0001)                 3.232833825614068E+05,      /* I = 47 */
(PID.TID 0000.0001)                 3.236994750082736E+05       /* I = 48 */
(PID.TID 0000.0001)     ;
(PID.TID 0000.0001) dxF =  /* dxF(1,:,1,:) ( units: m ) */
(PID.TID 0000.0001)                 1.202082051331828E+05,      /* J =  1 */
(PID.TID 0000.0001)                 1.572908084538706E+05,      /* J =  2 */
(PID.TID 0000.0001)                 1.840412227747703E+05,      /* J =  3 */
(PID.TID 0000.0001)                 2.048868197919576E+05,      /* J =  4 */
(PID.TID 0000.0001)                 2.220405216043041E+05,      /* J =  5 */
(PID.TID 0000.0001)                 2.365892017348392E+05,      /* J =  6 */
(PID.TID 0000.0001)                 2.491250781852558E+05,      /* J =  7 */
(PID.TID 0000.0001)                 2.599949918261881E+05,      /* J =  8 */
(PID.TID 0000.0001)                 2.694110134598581E+05,      /* J =  9 */
(PID.TID 0000.0001)                 2.775055554645015E+05,      /* J = 10 */
(PID.TID 0000.0001)                 2.843615645344775E+05,      /* J = 11 */
(PID.TID 0000.0001)                 2.900303768613599E+05,      /* J = 12 */
(PID.TID 0000.0001)                 2.945429307892709E+05,      /* J = 13 */
(PID.TID 0000.0001)                 2.979171143158405E+05,      /* J = 14 */
(PID.TID 0000.0001)                 3.001626787528886E+05,      /* J = 15 */
(PID.TID 0000.0001)                 3.012844832048790E+05       /* J = 16 */
(PID.TID 0000.0001)     ;
(PID.TID 0000.0001) dyF =  /* dyF(:,1,:,1) ( units: m ) */
(PID.TID 0000.0001)                 1.202082051331828E+05,      /* I =  1 */
(PID.TID 0000.0001)                 1.572908084538706E+05,      /* I =  2 */
(PID.TID 0000.0001)                 1.840412227747703E+05,      /* I =  3 */
(PID.TID 0000.0001)                 2.048868197919576E+05,      /* I =  4 */
(PID.TID 0000.0001)                 2.220405216043041E+05,      /* I =  5 */
(PID.TID 0000.0001)                 2.365892017348392E+05,      /* I =  6 */
(PID.TID 0000.0001)                 2.491250781852558E+05,      /* I =  7 */
(PID.TID 0000.0001)                 2.599949918261881E+05,      /* I =  8 */
(PID.TID 0000.0001)                 2.694110134598581E+05,      /* I =  9 */
(PID.TID 0000.0001)                 2.775055554645015E+05,      /* I = 10 */
(PID.TID 0000.0001)                 2.843615645344775E+05,      /* I = 11 */
(PID.TID 0000.0001)                 2.900303768613599E+05,      /* I = 12 */
(PID.TID 0000.0001)                 2.945429307892709E+05,      /* I = 13 */
(PID.TID 0000.0001)                 2.979171143158405E+05,      /* I = 14 */
(PID.TID 0000.0001)                 3.001626787528886E+05,      /* I = 15 */
(PID.TID 0000.0001)     2 @  3.012844832048790E+05,             /* I = 16: 17 */
(PID.TID 0000.0001)                 3.001626787528886E+05,      /* I = 18 */
(PID.TID 0000.0001)                 2.979171143158405E+05,      /* I = 19 */
(PID.TID 0000.0001)                 2.945429307892709E+05,      /* I = 20 */
(PID.TID 0000.0001)                 2.900303768613599E+05,      /* I = 21 */
(PID.TID 0000.0001)                 2.843615645344775E+05,      /* I = 22 */
(PID.TID 0000.0001)                 2.775055554645015E+05,      /* I = 23 */
(PID.TID 0000.0001)                 2.694110134598581E+05,      /* I = 24 */
(PID.TID 0000.0001)                 2.599949918261881E+05,      /* I = 25 */
(PID.TID 0000.0001)                 2.491250781852558E+05,      /* I = 26 */
(PID.TID 0000.0001)                 2.365892017348392E+05,      /* I = 27 */
(PID.TID 0000.0001)                 2.220405216043041E+05,      /* I = 28 */
(PID.TID 0000.0001)                 2.048868197919576E+05,      /* I = 29 */
(PID.TID 0000.0001)                 1.840412227747703E+05,      /* I = 30 */
(PID.TID 0000.0001)                 1.572908084538706E+05,      /* I = 31 */
(PID.TID 0000.0001)                 1.202082051331828E+05,      /* I = 32 */
(PID.TID 0000.0001)                 3.012190981969055E+05,      /* I = 33 */
(PID.TID 0000.0001)                 3.016675528553907E+05,      /* I = 34 */
(PID.TID 0000.0001)                 3.025451404065074E+05,      /* I = 35 */
(PID.TID 0000.0001)                 3.038143430929827E+05,      /* I = 36 */
(PID.TID 0000.0001)                 3.054215712079756E+05,      /* I = 37 */
(PID.TID 0000.0001)                 3.073000594641912E+05,      /* I = 38 */
(PID.TID 0000.0001)                 3.093732589453273E+05,      /* I = 39 */
(PID.TID 0000.0001)                 3.115584474900804E+05,      /* I = 40 */
(PID.TID 0000.0001)                 3.137703202065625E+05,      /* I = 41 */
(PID.TID 0000.0001)                 3.159243816151009E+05,      /* I = 42 */
(PID.TID 0000.0001)                 3.179400237154126E+05,      /* I = 43 */
(PID.TID 0000.0001)                 3.197432274745630E+05,      /* I = 44 */
(PID.TID 0000.0001)                 3.212688630823077E+05,      /* I = 45 */
(PID.TID 0000.0001)                 3.224625867238719E+05,      /* I = 46 */
(PID.TID 0000.0001)                 3.232823418193404E+05,      /* I = 47 */
(PID.TID 0000.0001)                 3.236994750082736E+05       /* I = 48 */
(PID.TID 0000.0001)     ;
(PID.TID 0000.0001) dyF =  /* dyF(1,:,1,:) ( units: m ) */
(PID.TID 0000.0001)                 1.202082051331828E+05,      /* J =  1 */
(PID.TID 0000.0001)                 1.563594089971120E+05,      /* J =  2 */
(PID.TID 0000.0001)                 1.835530058121492E+05,      /* J =  3 */
(PID.TID 0000.0001)                 2.045883481718707E+05,      /* J =  4 */
(PID.TID 0000.0001)                 2.218350349844185E+05,      /* J =  5 */
(PID.TID 0000.0001)                 2.364352994647058E+05,      /* J =  6 */
(PID.TID 0000.0001)                 2.490022710862746E+05,      /* J =  7 */
(PID.TID 0000.0001)                 2.598919724358304E+05,      /* J =  8 */
(PID.TID 0000.0001)                 2.693210245495156E+05,      /* J =  9 */
(PID.TID 0000.0001)                 2.774243179696503E+05,      /* J = 10 */
(PID.TID 0000.0001)                 2.842862532064524E+05,      /* J = 11 */
(PID.TID 0000.0001)                 2.899590699694043E+05,      /* J = 12 */
(PID.TID 0000.0001)                 2.944742915095688E+05,      /* J = 13 */
(PID.TID 0000.0001)                 2.978501920522794E+05,      /* J = 14 */
(PID.TID 0000.0001)                 3.000967749619962E+05,      /* J = 15 */
(PID.TID 0000.0001)                 3.012190981969055E+05       /* J = 16 */
(PID.TID 0000.0001)     ;
(PID.TID 0000.0001) dxG =  /* dxG(:,1,:,1) ( units: m ) */
(PID.TID 0000.0001)                 1.009837800879055E+05,      /* I =  1 */
(PID.TID 0000.0001)                 1.534505834330338E+05,      /* I =  2 */
(PID.TID 0000.0001)                 1.823321598773926E+05,      /* I =  3 */
(PID.TID 0000.0001)                 2.038999045536999E+05,      /* I =  4 */
(PID.TID 0000.0001)                 2.213884732245467E+05,      /* I =  5 */
(PID.TID 0000.0001)                 2.361211699596122E+05,      /* I =  6 */
(PID.TID 0000.0001)                 2.487693460283865E+05,      /* I =  7 */
(PID.TID 0000.0001)                 2.597126963772147E+05,      /* I =  8 */
(PID.TID 0000.0001)                 2.691790288994575E+05,      /* I =  9 */
(PID.TID 0000.0001)                 2.773091043277394E+05,      /* I = 10 */
(PID.TID 0000.0001)                 2.841906470085516E+05,      /* I = 11 */
(PID.TID 0000.0001)                 2.898778860929753E+05,      /* I = 12 */
(PID.TID 0000.0001)                 2.944035815526416E+05,      /* I = 13 */
(PID.TID 0000.0001)                 2.977867909042096E+05,      /* I = 14 */
(PID.TID 0000.0001)                 3.000380090330854E+05,      /* I = 15 */
(PID.TID 0000.0001)     2 @  3.011625828699101E+05,             /* I = 16: 17 */
(PID.TID 0000.0001)                 3.000380090330854E+05,      /* I = 18 */
(PID.TID 0000.0001)                 2.977867909042096E+05,      /* I = 19 */
(PID.TID 0000.0001)                 2.944035815526416E+05,      /* I = 20 */
(PID.TID 0000.0001)                 2.898778860929753E+05,      /* I = 21 */
(PID.TID 0000.0001)                 2.841906470085516E+05,      /* I = 22 */
(PID.TID 0000.0001)                 2.773091043277394E+05,      /* I = 23 */
(PID.TID 0000.0001)                 2.691790288994575E+05,      /* I = 24 */
(PID.TID 0000.0001)                 2.597126963772147E+05,      /* I = 25 */
(PID.TID 0000.0001)                 2.487693460283865E+05,      /* I = 26 */
(PID.TID 0000.0001)                 2.361211699596122E+05,      /* I = 27 */
(PID.TID 0000.0001)                 2.213884732245467E+05,      /* I = 28 */
(PID.TID 0000.0001)                 2.038999045536999E+05,      /* I = 29 */
(PID.TID 0000.0001)                 1.823321598773926E+05,      /* I = 30 */
(PID.TID 0000.0001)                 1.534505834330338E+05,      /* I = 31 */
(PID.TID 0000.0001)                 1.009837800879055E+05,      /* I = 32 */
(PID.TID 0000.0001)                 3.014246674484008E+05,      /* I = 33 */
(PID.TID 0000.0001)                 3.018694497480782E+05,      /* I = 34 */
(PID.TID 0000.0001)                 3.027399364062562E+05,      /* I = 35 */
(PID.TID 0000.0001)                 3.039990657490951E+05,      /* I = 36 */
(PID.TID 0000.0001)                 3.055938607351786E+05,      /* I = 37 */
(PID.TID 0000.0001)                 3.074582577767738E+05,      /* I = 38 */
(PID.TID 0000.0001)                 3.095164322685570E+05,      /* I = 39 */
(PID.TID 0000.0001)                 3.116863538419811E+05,      /* I = 40 */
(PID.TID 0000.0001)                 3.138833384868975E+05,      /* I = 41 */
(PID.TID 0000.0001)                 3.160234197751047E+05,      /* I = 42 */
(PID.TID 0000.0001)                 3.180264208293543E+05,      /* I = 43 */
(PID.TID 0000.0001)                 3.198186602283748E+05,      /* I = 44 */
(PID.TID 0000.0001)                 3.213352627063766E+05,      /* I = 45 */
(PID.TID 0000.0001)                 3.225220686282585E+05,      /* I = 46 */
(PID.TID 0000.0001)                 3.233371474853745E+05,      /* I = 47 */
(PID.TID 0000.0001)                 3.237519587277332E+05       /* I = 48 */
(PID.TID 0000.0001)     ;
(PID.TID 0000.0001) dxG =  /* dxG(1,:,1,:) ( units: m ) */
(PID.TID 0000.0001)                 1.009837800879055E+05,      /* J =  1 */
(PID.TID 0000.0001)                 1.403701524205398E+05,      /* J =  2 */
(PID.TID 0000.0001)                 1.716197227386011E+05,      /* J =  3 */
(PID.TID 0000.0001)                 1.950254041626018E+05,      /* J =  4 */
(PID.TID 0000.0001)                 2.138410773065497E+05,      /* J =  5 */
(PID.TID 0000.0001)                 2.295958105911512E+05,      /* J =  6 */
(PID.TID 0000.0001)                 2.430829951739083E+05,      /* J =  7 */
(PID.TID 0000.0001)                 2.547526806712889E+05,      /* J =  8 */
(PID.TID 0000.0001)                 2.648750305193301E+05,      /* J =  9 */
(PID.TID 0000.0001)                 2.736173771018112E+05,      /* J = 10 */
(PID.TID 0000.0001)                 2.810845823202647E+05,      /* J = 11 */
(PID.TID 0000.0001)                 2.873420591008078E+05,      /* J = 12 */
(PID.TID 0000.0001)                 2.924298293668651E+05,      /* J = 13 */
(PID.TID 0000.0001)                 2.963715635865306E+05,      /* J = 14 */
(PID.TID 0000.0001)                 2.991805843171258E+05,      /* J = 15 */
(PID.TID 0000.0001)                 3.008638765647886E+05       /* J = 16 */
(PID.TID 0000.0001)     ;
(PID.TID 0000.0001) dyG =  /* dyG(:,1,:,1) ( units: m ) */
(PID.TID 0000.0001)                 1.009837800879055E+05,      /* I =  1 */
(PID.TID 0000.0001)                 1.403701524205398E+05,      /* I =  2 */
(PID.TID 0000.0001)                 1.716197227386011E+05,      /* I =  3 */
(PID.TID 0000.0001)                 1.950254041626018E+05,      /* I =  4 */
(PID.TID 0000.0001)                 2.138410773065497E+05,      /* I =  5 */
(PID.TID 0000.0001)                 2.295958105911512E+05,      /* I =  6 */
(PID.TID 0000.0001)                 2.430829951739083E+05,      /* I =  7 */
(PID.TID 0000.0001)                 2.547526806712889E+05,      /* I =  8 */
(PID.TID 0000.0001)                 2.648750305193301E+05,      /* I =  9 */
(PID.TID 0000.0001)                 2.736173771018112E+05,      /* I = 10 */
(PID.TID 0000.0001)                 2.810845823202647E+05,      /* I = 11 */
(PID.TID 0000.0001)                 2.873420591008078E+05,      /* I = 12 */
(PID.TID 0000.0001)                 2.924298293668651E+05,      /* I = 13 */
(PID.TID 0000.0001)                 2.963715635865306E+05,      /* I = 14 */
(PID.TID 0000.0001)                 2.991805843171258E+05,      /* I = 15 */
(PID.TID 0000.0001)                 3.008638765647886E+05,      /* I = 16 */
(PID.TID 0000.0001)                 3.014246674484008E+05,      /* I = 17 */
(PID.TID 0000.0001)                 3.008638765647886E+05,      /* I = 18 */
(PID.TID 0000.0001)                 2.991805843171258E+05,      /* I = 19 */
(PID.TID 0000.0001)                 2.963715635865306E+05,      /* I = 20 */
(PID.TID 0000.0001)                 2.924298293668651E+05,      /* I = 21 */
(PID.TID 0000.0001)                 2.873420591008078E+05,      /* I = 22 */
(PID.TID 0000.0001)                 2.810845823202647E+05,      /* I = 23 */
(PID.TID 0000.0001)                 2.736173771018112E+05,      /* I = 24 */
(PID.TID 0000.0001)                 2.648750305193301E+05,      /* I = 25 */
(PID.TID 0000.0001)                 2.547526806712889E+05,      /* I = 26 */
(PID.TID 0000.0001)                 2.430829951739083E+05,      /* I = 27 */
(PID.TID 0000.0001)                 2.295958105911512E+05,      /* I = 28 */
(PID.TID 0000.0001)                 2.138410773065497E+05,      /* I = 29 */
(PID.TID 0000.0001)                 1.950254041626018E+05,      /* I = 30 */
(PID.TID 0000.0001)                 1.716197227386011E+05,      /* I = 31 */
(PID.TID 0000.0001)                 1.403701524205398E+05,      /* I = 32 */
(PID.TID 0000.0001)                 3.011625828699101E+05,      /* I = 33 */
(PID.TID 0000.0001)                 3.013880313304323E+05,      /* I = 34 */
(PID.TID 0000.0001)                 3.020546438966793E+05,      /* I = 35 */
(PID.TID 0000.0001)                 3.031337933484788E+05,      /* I = 36 */
(PID.TID 0000.0001)                 3.045796060304602E+05,      /* I = 37 */
(PID.TID 0000.0001)                 3.063315047037455E+05,      /* I = 38 */
(PID.TID 0000.0001)                 3.083173884297931E+05,      /* I = 39 */
(PID.TID 0000.0001)                 3.104571666747115E+05,      /* I = 40 */
(PID.TID 0000.0001)                 3.126663860714039E+05,      /* I = 41 */
(PID.TID 0000.0001)                 3.148597400258051E+05,      /* I = 42 */
(PID.TID 0000.0001)                 3.169543146344334E+05,      /* I = 43 */
(PID.TID 0000.0001)                 3.188724835261090E+05,      /* I = 44 */
(PID.TID 0000.0001)                 3.205444100809708E+05,      /* I = 45 */
(PID.TID 0000.0001)                 3.219101453522735E+05,      /* I = 46 */
(PID.TID 0000.0001)                 3.229213257990267E+05,      /* I = 47 */
(PID.TID 0000.0001)                 3.235424806617432E+05       /* I = 48 */
(PID.TID 0000.0001)     ;
(PID.TID 0000.0001) dyG =  /* dyG(1,:,1,:) ( units: m ) */
(PID.TID 0000.0001)                 1.009837800879055E+05,      /* J =  1 */
(PID.TID 0000.0001)                 1.534505834330338E+05,      /* J =  2 */
(PID.TID 0000.0001)                 1.823321598773926E+05,      /* J =  3 */
(PID.TID 0000.0001)                 2.038999045536999E+05,      /* J =  4 */
(PID.TID 0000.0001)                 2.213884732245467E+05,      /* J =  5 */
(PID.TID 0000.0001)                 2.361211699596122E+05,      /* J =  6 */
(PID.TID 0000.0001)                 2.487693460283865E+05,      /* J =  7 */
(PID.TID 0000.0001)                 2.597126963772147E+05,      /* J =  8 */
(PID.TID 0000.0001)                 2.691790288994575E+05,      /* J =  9 */
(PID.TID 0000.0001)                 2.773091043277394E+05,      /* J = 10 */
(PID.TID 0000.0001)                 2.841906470085516E+05,      /* J = 11 */
(PID.TID 0000.0001)                 2.898778860929753E+05,      /* J = 12 */
(PID.TID 0000.0001)                 2.944035815526416E+05,      /* J = 13 */
(PID.TID 0000.0001)                 2.977867909042096E+05,      /* J = 14 */
(PID.TID 0000.0001)                 3.000380090330854E+05,      /* J = 15 */
(PID.TID 0000.0001)                 3.011625828699101E+05       /* J = 16 */
(PID.TID 0000.0001)     ;
(PID.TID 0000.0001) dxC =  /* dxC(:,1,:,1) ( units: m ) */
(PID.TID 0000.0001)                 1.114203141013064E+05,      /* I =  1 */
(PID.TID 0000.0001)                 1.391343389937106E+05,      /* I =  2 */
(PID.TID 0000.0001)                 1.709574999026266E+05,      /* I =  3 */
(PID.TID 0000.0001)                 1.946503699269892E+05,      /* I =  4 */
(PID.TID 0000.0001)                 2.135964483342134E+05,      /* I =  5 */
(PID.TID 0000.0001)                 2.294195678257306E+05,      /* I =  6 */
(PID.TID 0000.0001)                 2.429464709770498E+05,      /* I =  7 */
(PID.TID 0000.0001)                 2.546408290696998E+05,      /* I =  8 */
(PID.TID 0000.0001)                 2.647791839299727E+05,      /* I =  9 */
(PID.TID 0000.0001)                 2.735321911346108E+05,      /* I = 10 */
(PID.TID 0000.0001)                 2.810065951609633E+05,      /* I = 11 */
(PID.TID 0000.0001)                 2.872689479506990E+05,      /* I = 12 */
(PID.TID 0000.0001)                 2.923599955312932E+05,      /* I = 13 */
(PID.TID 0000.0001)                 2.963038832565530E+05,      /* I = 14 */
(PID.TID 0000.0001)                 2.991142470004740E+05,      /* I = 15 */
(PID.TID 0000.0001)                 3.007982711627968E+05,      /* I = 16 */
(PID.TID 0000.0001)                 3.013593857228136E+05,      /* I = 17 */
(PID.TID 0000.0001)                 3.007982711627968E+05,      /* I = 18 */
(PID.TID 0000.0001)                 2.991142470004740E+05,      /* I = 19 */
(PID.TID 0000.0001)                 2.963038832565530E+05,      /* I = 20 */
(PID.TID 0000.0001)                 2.923599955312932E+05,      /* I = 21 */
(PID.TID 0000.0001)                 2.872689479506990E+05,      /* I = 22 */
(PID.TID 0000.0001)                 2.810065951609633E+05,      /* I = 23 */
(PID.TID 0000.0001)                 2.735321911346108E+05,      /* I = 24 */
(PID.TID 0000.0001)                 2.647791839299727E+05,      /* I = 25 */
(PID.TID 0000.0001)                 2.546408290696998E+05,      /* I = 26 */
(PID.TID 0000.0001)                 2.429464709770498E+05,      /* I = 27 */
(PID.TID 0000.0001)                 2.294195678257306E+05,      /* I = 28 */
(PID.TID 0000.0001)                 2.135964483342134E+05,      /* I = 29 */
(PID.TID 0000.0001)                 1.946503699269892E+05,      /* I = 30 */
(PID.TID 0000.0001)                 1.709574999026266E+05,      /* I = 31 */
(PID.TID 0000.0001)                 1.391343389937106E+05,      /* I = 32 */
(PID.TID 0000.0001)                 3.012281885409289E+05,      /* I = 33 */
(PID.TID 0000.0001)                 3.014528555318499E+05,      /* I = 34 */
(PID.TID 0000.0001)                 3.021172674809921E+05,      /* I = 35 */
(PID.TID 0000.0001)                 3.031928954490276E+05,      /* I = 36 */
(PID.TID 0000.0001)                 3.046340673197290E+05,      /* I = 37 */
(PID.TID 0000.0001)                 3.063804565966232E+05,      /* I = 38 */
(PID.TID 0000.0001)                 3.083602390447406E+05,      /* I = 39 */
(PID.TID 0000.0001)                 3.104936054761689E+05,      /* I = 40 */
(PID.TID 0000.0001)                 3.126963716684348E+05,      /* I = 41 */
(PID.TID 0000.0001)                 3.148834765567928E+05,      /* I = 42 */
(PID.TID 0000.0001)                 3.169722218029966E+05,      /* I = 43 */
(PID.TID 0000.0001)                 3.188851642086189E+05,      /* I = 44 */
(PID.TID 0000.0001)                 3.205526180491640E+05,      /* I = 45 */
(PID.TID 0000.0001)                 3.219147544224371E+05,      /* I = 46 */
(PID.TID 0000.0001)                 3.229233008154936E+05,      /* I = 47 */
(PID.TID 0000.0001)                 3.235428501703109E+05       /* I = 48 */
(PID.TID 0000.0001)     ;
(PID.TID 0000.0001) dxC =  /* dxC(1,:,1,:) ( units: m ) */
(PID.TID 0000.0001)                 1.114203141013064E+05,      /* J =  1 */
(PID.TID 0000.0001)                 1.549545757850771E+05,      /* J =  2 */
(PID.TID 0000.0001)                 1.829777599966776E+05,      /* J =  3 */
(PID.TID 0000.0001)                 2.042717761866506E+05,      /* J =  4 */
(PID.TID 0000.0001)                 2.216367828252819E+05,      /* J =  5 */
(PID.TID 0000.0001)                 2.363029564123586E+05,      /* J =  6 */
(PID.TID 0000.0001)                 2.489113743322025E+05,      /* J =  7 */
(PID.TID 0000.0001)                 2.598293319150326E+05,      /* J =  8 */
(PID.TID 0000.0001)                 2.692787333338535E+05,      /* J =  9 */
(PID.TID 0000.0001)                 2.773972106720365E+05,      /* J = 10 */
(PID.TID 0000.0001)                 2.842706922224557E+05,      /* J = 11 */
(PID.TID 0000.0001)                 2.899523122489403E+05,      /* J = 12 */
(PID.TID 0000.0001)                 2.944741346384699E+05,      /* J = 13 */
(PID.TID 0000.0001)                 2.978547649292580E+05,      /* J = 14 */
(PID.TID 0000.0001)                 3.001044073506459E+05,      /* J = 15 */
(PID.TID 0000.0001)                 3.012281885409289E+05       /* J = 16 */
(PID.TID 0000.0001)     ;
(PID.TID 0000.0001) dyC =  /* dyC(:,1,:,1) ( units: m ) */
(PID.TID 0000.0001)                 1.114203141013064E+05,      /* I =  1 */
(PID.TID 0000.0001)                 1.549545757850771E+05,      /* I =  2 */
(PID.TID 0000.0001)                 1.829777599966776E+05,      /* I =  3 */
(PID.TID 0000.0001)                 2.042717761866506E+05,      /* I =  4 */
(PID.TID 0000.0001)                 2.216367828252819E+05,      /* I =  5 */
(PID.TID 0000.0001)                 2.363029564123586E+05,      /* I =  6 */
(PID.TID 0000.0001)                 2.489113743322025E+05,      /* I =  7 */
(PID.TID 0000.0001)                 2.598293319150326E+05,      /* I =  8 */
(PID.TID 0000.0001)                 2.692787333338535E+05,      /* I =  9 */
(PID.TID 0000.0001)                 2.773972106720365E+05,      /* I = 10 */
(PID.TID 0000.0001)                 2.842706922224557E+05,      /* I = 11 */
(PID.TID 0000.0001)                 2.899523122489403E+05,      /* I = 12 */
(PID.TID 0000.0001)                 2.944741346384699E+05,      /* I = 13 */
(PID.TID 0000.0001)                 2.978547649292580E+05,      /* I = 14 */
(PID.TID 0000.0001)                 3.001044073506459E+05,      /* I = 15 */
(PID.TID 0000.0001)     2 @  3.012281885409289E+05,             /* I = 16: 17 */
(PID.TID 0000.0001)                 3.001044073506459E+05,      /* I = 18 */
(PID.TID 0000.0001)                 2.978547649292580E+05,      /* I = 19 */
(PID.TID 0000.0001)                 2.944741346384699E+05,      /* I = 20 */
(PID.TID 0000.0001)                 2.899523122489403E+05,      /* I = 21 */
(PID.TID 0000.0001)                 2.842706922224557E+05,      /* I = 22 */
(PID.TID 0000.0001)                 2.773972106720365E+05,      /* I = 23 */
(PID.TID 0000.0001)                 2.692787333338535E+05,      /* I = 24 */
(PID.TID 0000.0001)                 2.598293319150326E+05,      /* I = 25 */
(PID.TID 0000.0001)                 2.489113743322025E+05,      /* I = 26 */
(PID.TID 0000.0001)                 2.363029564123586E+05,      /* I = 27 */
(PID.TID 0000.0001)                 2.216367828252819E+05,      /* I = 28 */
(PID.TID 0000.0001)                 2.042717761866506E+05,      /* I = 29 */
(PID.TID 0000.0001)                 1.829777599966776E+05,      /* I = 30 */
(PID.TID 0000.0001)                 1.549545757850771E+05,      /* I = 31 */
(PID.TID 0000.0001)                 1.114203141013064E+05,      /* I = 32 */
(PID.TID 0000.0001)                 3.013593857228136E+05,      /* I = 33 */
(PID.TID 0000.0001)                 3.018056440786431E+05,      /* I = 34 */
(PID.TID 0000.0001)                 3.026789946729719E+05,      /* I = 35 */
(PID.TID 0000.0001)                 3.039422096857757E+05,      /* I = 36 */
(PID.TID 0000.0001)                 3.055420860601236E+05,      /* I = 37 */
(PID.TID 0000.0001)                 3.074122965148668E+05,      /* I = 38 */
(PID.TID 0000.0001)                 3.094767373001940E+05,      /* I = 39 */
(PID.TID 0000.0001)                 3.116531025121516E+05,      /* I = 40 */
(PID.TID 0000.0001)                 3.138564503561421E+05,      /* I = 41 */
(PID.TID 0000.0001)                 3.160025832904765E+05,      /* I = 42 */
(PID.TID 0000.0001)                 3.180111244362097E+05,      /* I = 43 */
(PID.TID 0000.0001)                 3.198082246942282E+05,      /* I = 44 */
(PID.TID 0000.0001)                 3.213288727261454E+05,      /* I = 45 */
(PID.TID 0000.0001)                 3.225188028454169E+05,      /* I = 46 */
(PID.TID 0000.0001)                 3.233360067886980E+05,      /* I = 47 */
(PID.TID 0000.0001)                 3.237518583690030E+05       /* I = 48 */
(PID.TID 0000.0001)     ;
(PID.TID 0000.0001) dyC =  /* dyC(1,:,1,:) ( units: m ) */
(PID.TID 0000.0001)                 1.114203141013064E+05,      /* J =  1 */
(PID.TID 0000.0001)                 1.391343389937106E+05,      /* J =  2 */
(PID.TID 0000.0001)                 1.709574999026266E+05,      /* J =  3 */
(PID.TID 0000.0001)                 1.946503699269892E+05,      /* J =  4 */
(PID.TID 0000.0001)                 2.135964483342134E+05,      /* J =  5 */
(PID.TID 0000.0001)                 2.294195678257306E+05,      /* J =  6 */
(PID.TID 0000.0001)                 2.429464709770498E+05,      /* J =  7 */
(PID.TID 0000.0001)                 2.546408290696998E+05,      /* J =  8 */
(PID.TID 0000.0001)                 2.647791839299727E+05,      /* J =  9 */
(PID.TID 0000.0001)                 2.735321911346108E+05,      /* J = 10 */
(PID.TID 0000.0001)                 2.810065951609633E+05,      /* J = 11 */
(PID.TID 0000.0001)                 2.872689479506990E+05,      /* J = 12 */
(PID.TID 0000.0001)                 2.923599955312932E+05,      /* J = 13 */
(PID.TID 0000.0001)                 2.963038832565530E+05,      /* J = 14 */
(PID.TID 0000.0001)                 2.991142470004740E+05,      /* J = 15 */
(PID.TID 0000.0001)                 3.007982711627968E+05       /* J = 16 */
(PID.TID 0000.0001)     ;
(PID.TID 0000.0001) dxV =  /* dxV(:,1,:,1) ( units: m ) */
(PID.TID 0000.0001)                 8.015229982413632E+04,      /* I =  1 */
(PID.TID 0000.0001)                 1.333130744933864E+05,      /* I =  2 */
(PID.TID 0000.0001)                 1.691744868129062E+05,      /* I =  3 */
(PID.TID 0000.0001)                 1.937548202849060E+05,      /* I =  4 */
(PID.TID 0000.0001)                 2.130490056267208E+05,      /* I =  5 */
(PID.TID 0000.0001)                 2.290479919481738E+05,      /* I =  6 */
(PID.TID 0000.0001)                 2.426774358027003E+05,      /* I =  7 */
(PID.TID 0000.0001)                 2.544372984215561E+05,      /* I =  8 */
(PID.TID 0000.0001)                 2.646201463834826E+05,      /* I =  9 */
(PID.TID 0000.0001)                 2.734046499619031E+05,      /* I = 10 */
(PID.TID 0000.0001)                 2.809019351693761E+05,      /* I = 11 */
(PID.TID 0000.0001)                 2.871811105274442E+05,      /* I = 12 */
(PID.TID 0000.0001)                 2.922844849381675E+05,      /* I = 13 */
(PID.TID 0000.0001)                 2.962371870847826E+05,      /* I = 14 */
(PID.TID 0000.0001)                 2.990534755671296E+05,      /* I = 15 */
(PID.TID 0000.0001)                 3.007409169495504E+05,      /* I = 16 */
(PID.TID 0000.0001)                 3.013031486919771E+05,      /* I = 17 */
(PID.TID 0000.0001)                 3.007409169495504E+05,      /* I = 18 */
(PID.TID 0000.0001)                 2.990534755671296E+05,      /* I = 19 */
(PID.TID 0000.0001)                 2.962371870847826E+05,      /* I = 20 */
(PID.TID 0000.0001)                 2.922844849381675E+05,      /* I = 21 */
(PID.TID 0000.0001)                 2.871811105274442E+05,      /* I = 22 */
(PID.TID 0000.0001)                 2.809019351693761E+05,      /* I = 23 */
(PID.TID 0000.0001)                 2.734046499619031E+05,      /* I = 24 */
(PID.TID 0000.0001)                 2.646201463834826E+05,      /* I = 25 */
(PID.TID 0000.0001)                 2.544372984215561E+05,      /* I = 26 */
(PID.TID 0000.0001)                 2.426774358027003E+05,      /* I = 27 */
(PID.TID 0000.0001)                 2.290479919481738E+05,      /* I = 28 */
(PID.TID 0000.0001)                 2.130490056267208E+05,      /* I = 29 */
(PID.TID 0000.0001)                 1.937548202849060E+05,      /* I = 30 */
(PID.TID 0000.0001)                 1.691744868129062E+05,      /* I = 31 */
(PID.TID 0000.0001)                 1.333130744933864E+05,      /* I = 32 */
(PID.TID 0000.0001)                 3.013686170436881E+05,      /* I = 33 */
(PID.TID 0000.0001)                 3.015922136961168E+05,      /* I = 34 */
(PID.TID 0000.0001)                 3.022533948177109E+05,      /* I = 35 */
(PID.TID 0000.0001)                 3.033238888442880E+05,      /* I = 36 */
(PID.TID 0000.0001)                 3.047583645125296E+05,      /* I = 37 */
(PID.TID 0000.0001)                 3.064969104248934E+05,      /* I = 38 */
(PID.TID 0000.0001)                 3.084681464323149E+05,      /* I = 39 */
(PID.TID 0000.0001)                 3.105926959662063E+05,      /* I = 40 */
(PID.TID 0000.0001)                 3.127867656729039E+05,      /* I = 41 */
(PID.TID 0000.0001)                 3.149656255235069E+05,      /* I = 42 */
(PID.TID 0000.0001)                 3.170468416979250E+05,      /* I = 43 */
(PID.TID 0000.0001)                 3.189531711639232E+05,      /* I = 44 */
(PID.TID 0000.0001)                 3.206150718566154E+05,      /* I = 45 */
(PID.TID 0000.0001)                 3.219728125807783E+05,      /* I = 46 */
(PID.TID 0000.0001)                 3.229781834933111E+05,      /* I = 47 */
(PID.TID 0000.0001)                 3.235958148230841E+05       /* I = 48 */
(PID.TID 0000.0001)     ;
(PID.TID 0000.0001) dxV =  /* dxV(1,:,1,:) ( units: m ) */
(PID.TID 0000.0001)                 8.015229982413632E+04,      /* J =  1 */
(PID.TID 0000.0001)                 1.362652340208229E+05,      /* J =  2 */
(PID.TID 0000.0001)                 1.701080315742101E+05,      /* J =  3 */
(PID.TID 0000.0001)                 1.942331448101592E+05,      /* J =  4 */
(PID.TID 0000.0001)                 2.133486626971531E+05,      /* J =  5 */
(PID.TID 0000.0001)                 2.292584591272880E+05,      /* J =  6 */
(PID.TID 0000.0001)                 2.428369969078989E+05,      /* J =  7 */
(PID.TID 0000.0001)                 2.545652950875683E+05,      /* J =  8 */
(PID.TID 0000.0001)                 2.647274964828301E+05,      /* J =  9 */
(PID.TID 0000.0001)                 2.734980225206389E+05,      /* J = 10 */
(PID.TID 0000.0001)                 2.809856491525217E+05,      /* J = 11 */
(PID.TID 0000.0001)                 2.872580915202295E+05,      /* J = 12 */
(PID.TID 0000.0001)                 2.923567890694162E+05,      /* J = 13 */
(PID.TID 0000.0001)                 2.963063101754721E+05,      /* J = 14 */
(PID.TID 0000.0001)                 2.991205495886625E+05,      /* J = 15 */
(PID.TID 0000.0001)                 3.008068453676764E+05       /* J = 16 */
(PID.TID 0000.0001)     ;
(PID.TID 0000.0001) dyU =  /* dyU(:,1,:,1) ( units: m ) */
(PID.TID 0000.0001)                 8.015229982413632E+04,      /* I =  1 */
(PID.TID 0000.0001)                 1.362652340208229E+05,      /* I =  2 */
(PID.TID 0000.0001)                 1.701080315742101E+05,      /* I =  3 */
(PID.TID 0000.0001)                 1.942331448101592E+05,      /* I =  4 */
(PID.TID 0000.0001)                 2.133486626971531E+05,      /* I =  5 */
(PID.TID 0000.0001)                 2.292584591272880E+05,      /* I =  6 */
(PID.TID 0000.0001)                 2.428369969078989E+05,      /* I =  7 */
(PID.TID 0000.0001)                 2.545652950875683E+05,      /* I =  8 */
(PID.TID 0000.0001)                 2.647274964828301E+05,      /* I =  9 */
(PID.TID 0000.0001)                 2.734980225206389E+05,      /* I = 10 */
(PID.TID 0000.0001)                 2.809856491525217E+05,      /* I = 11 */
(PID.TID 0000.0001)                 2.872580915202295E+05,      /* I = 12 */
(PID.TID 0000.0001)                 2.923567890694162E+05,      /* I = 13 */
(PID.TID 0000.0001)                 2.963063101754721E+05,      /* I = 14 */
(PID.TID 0000.0001)                 2.991205495886625E+05,      /* I = 15 */
(PID.TID 0000.0001)                 3.008068453676764E+05,      /* I = 16 */
(PID.TID 0000.0001)                 3.013686170436881E+05,      /* I = 17 */
(PID.TID 0000.0001)                 3.008068453676764E+05,      /* I = 18 */
(PID.TID 0000.0001)                 2.991205495886625E+05,      /* I = 19 */
(PID.TID 0000.0001)                 2.963063101754721E+05,      /* I = 20 */
(PID.TID 0000.0001)                 2.923567890694162E+05,      /* I = 21 */
(PID.TID 0000.0001)                 2.872580915202295E+05,      /* I = 22 */
(PID.TID 0000.0001)                 2.809856491525217E+05,      /* I = 23 */
(PID.TID 0000.0001)                 2.734980225206389E+05,      /* I = 24 */
(PID.TID 0000.0001)                 2.647274964828301E+05,      /* I = 25 */
(PID.TID 0000.0001)                 2.545652950875683E+05,      /* I = 26 */
(PID.TID 0000.0001)                 2.428369969078989E+05,      /* I = 27 */
(PID.TID 0000.0001)                 2.292584591272880E+05,      /* I = 28 */
(PID.TID 0000.0001)                 2.133486626971531E+05,      /* I = 29 */
(PID.TID 0000.0001)                 1.942331448101592E+05,      /* I = 30 */
(PID.TID 0000.0001)                 1.701080315742101E+05,      /* I = 31 */
(PID.TID 0000.0001)                 1.362652340208229E+05,      /* I = 32 */
(PID.TID 0000.0001)                 3.013031486919771E+05,      /* I = 33 */
(PID.TID 0000.0001)                 3.015274890091515E+05,      /* I = 34 */
(PID.TID 0000.0001)                 3.021908563699420E+05,      /* I = 35 */
(PID.TID 0000.0001)                 3.032648502024415E+05,      /* I = 36 */
(PID.TID 0000.0001)                 3.047039405458409E+05,      /* I = 37 */
(PID.TID 0000.0001)                 3.064479682824742E+05,      /* I = 38 */
(PID.TID 0000.0001)                 3.084252792046263E+05,      /* I = 39 */
(PID.TID 0000.0001)                 3.105562173056038E+05,      /* I = 40 */
(PID.TID 0000.0001)                 3.127567211383312E+05,      /* I = 41 */
(PID.TID 0000.0001)                 3.149418154158797E+05,      /* I = 42 */
(PID.TID 0000.0001)                 3.170288504389129E+05,      /* I = 43 */
(PID.TID 0000.0001)                 3.189403993331409E+05,      /* I = 44 */
(PID.TID 0000.0001)                 3.206067683235888E+05,      /* I = 45 */
(PID.TID 0000.0001)                 3.219681053727232E+05,      /* I = 46 */
(PID.TID 0000.0001)                 3.229761089393431E+05,      /* I = 47 */
(PID.TID 0000.0001)                 3.235953450756532E+05       /* I = 48 */
(PID.TID 0000.0001)     ;
(PID.TID 0000.0001) dyU =  /* dyU(1,:,1,:) ( units: m ) */
(PID.TID 0000.0001)                 8.015229982413632E+04,      /* J =  1 */
(PID.TID 0000.0001)                 1.333130744933864E+05,      /* J =  2 */
(PID.TID 0000.0001)                 1.691744868129062E+05,      /* J =  3 */
(PID.TID 0000.0001)                 1.937548202849060E+05,      /* J =  4 */
(PID.TID 0000.0001)                 2.130490056267208E+05,      /* J =  5 */
(PID.TID 0000.0001)                 2.290479919481738E+05,      /* J =  6 */
(PID.TID 0000.0001)                 2.426774358027003E+05,      /* J =  7 */
(PID.TID 0000.0001)                 2.544372984215561E+05,      /* J =  8 */
(PID.TID 0000.0001)                 2.646201463834826E+05,      /* J =  9 */
(PID.TID 0000.0001)                 2.734046499619031E+05,      /* J = 10 */
(PID.TID 0000.0001)                 2.809019351693761E+05,      /* J = 11 */
(PID.TID 0000.0001)                 2.871811105274442E+05,      /* J = 12 */
(PID.TID 0000.0001)                 2.922844849381675E+05,      /* J = 13 */
(PID.TID 0000.0001)                 2.962371870847826E+05,      /* J = 14 */
(PID.TID 0000.0001)                 2.990534755671296E+05,      /* J = 15 */
(PID.TID 0000.0001)                 3.007409169495504E+05       /* J = 16 */
(PID.TID 0000.0001)     ;
(PID.TID 0000.0001) rA  =  /* rA (:,1,:,1) ( units: m^2 ) */
(PID.TID 0000.0001)                 1.401900702255611E+10,      /* I =  1 */
(PID.TID 0000.0001)                 2.459906945574446E+10,      /* I =  2 */
(PID.TID 0000.0001)                 3.378518544307869E+10,      /* I =  3 */
(PID.TID 0000.0001)                 4.192037169898667E+10,      /* I =  4 */
(PID.TID 0000.0001)                 4.925938996118163E+10,      /* I =  5 */
(PID.TID 0000.0001)                 5.594154126607553E+10,      /* I =  6 */
(PID.TID 0000.0001)                 6.203683527772523E+10,      /* I =  7 */
(PID.TID 0000.0001)                 6.757541173817516E+10,      /* I =  8 */
(PID.TID 0000.0001)                 7.256353271748119E+10,      /* I =  9 */
(PID.TID 0000.0001)                 7.699293007098555E+10,      /* I = 10 */
(PID.TID 0000.0001)                 8.084683449728902E+10,      /* I = 11 */
(PID.TID 0000.0001)                 8.410423102796223E+10,      /* I = 12 */
(PID.TID 0000.0001)                 8.674306976737517E+10,      /* I = 13 */
(PID.TID 0000.0001)                 8.874277443041928E+10,      /* I = 14 */
(PID.TID 0000.0001)                 9.008620045350865E+10,      /* I = 15 */
(PID.TID 0000.0001)                 9.076111290418457E+10,      /* I = 16 */
(PID.TID 0000.0001)                 9.076111290422060E+10,      /* I = 17 */
(PID.TID 0000.0001)                 9.008620045354469E+10,      /* I = 18 */
(PID.TID 0000.0001)                 8.874277443041928E+10,      /* I = 19 */
(PID.TID 0000.0001)                 8.674306976741121E+10,      /* I = 20 */
(PID.TID 0000.0001)                 8.410423102799828E+10,      /* I = 21 */
(PID.TID 0000.0001)                 8.084683449728902E+10,      /* I = 22 */
(PID.TID 0000.0001)                 7.699293007098555E+10,      /* I = 23 */
(PID.TID 0000.0001)                 7.256353271748119E+10,      /* I = 24 */
(PID.TID 0000.0001)                 6.757541173817516E+10,      /* I = 25 */
(PID.TID 0000.0001)                 6.203683527772523E+10,      /* I = 26 */
(PID.TID 0000.0001)                 5.594154126611156E+10,      /* I = 27 */
(PID.TID 0000.0001)                 4.925938996118163E+10,      /* I = 28 */
(PID.TID 0000.0001)                 4.192037169898667E+10,      /* I = 29 */
(PID.TID 0000.0001)                 3.378518544304265E+10,      /* I = 30 */
(PID.TID 0000.0001)                 2.459906945574446E+10,      /* I = 31 */
(PID.TID 0000.0001)                 1.401900702259215E+10,      /* I = 32 */
(PID.TID 0000.0001)                 9.076111290422060E+10,      /* I = 33 */
(PID.TID 0000.0001)                 9.103111035233499E+10,      /* I = 34 */
(PID.TID 0000.0001)                 9.156064070993231E+10,      /* I = 35 */
(PID.TID 0000.0001)                 9.232920428260213E+10,      /* I = 36 */
(PID.TID 0000.0001)                 9.330709899483766E+10,      /* I = 37 */
(PID.TID 0000.0001)                 9.445660930090860E+10,      /* I = 38 */
(PID.TID 0000.0001)                 9.573349030317511E+10,      /* I = 39 */
(PID.TID 0000.0001)                 9.708868016530809E+10,      /* I = 40 */
(PID.TID 0000.0001)                 9.847017339806476E+10,      /* I = 41 */
(PID.TID 0000.0001)                 9.982498936271980E+10,      /* I = 42 */
(PID.TID 0000.0001)                 1.011011716698855E+11,      /* I = 43 */
(PID.TID 0000.0001)                 1.022497537646060E+11,      /* I = 44 */
(PID.TID 0000.0001)                 1.032266241858423E+11,      /* I = 45 */
(PID.TID 0000.0001)                 1.039942233001552E+11,      /* I = 46 */
(PID.TID 0000.0001)                 1.045230037451501E+11,      /* I = 47 */
(PID.TID 0000.0001)                 1.047926024841940E+11       /* I = 48 */
(PID.TID 0000.0001)     ;
(PID.TID 0000.0001) rA  =  /* rA (1,:,1,:) ( units: m^2 ) */
(PID.TID 0000.0001)                 1.401900702255611E+10,      /* J =  1 */
(PID.TID 0000.0001)                 2.459906945574446E+10,      /* J =  2 */
(PID.TID 0000.0001)                 3.378518544307869E+10,      /* J =  3 */
(PID.TID 0000.0001)                 4.192037169898667E+10,      /* J =  4 */
(PID.TID 0000.0001)                 4.925938996118163E+10,      /* J =  5 */
(PID.TID 0000.0001)                 5.594154126607553E+10,      /* J =  6 */
(PID.TID 0000.0001)                 6.203683527776127E+10,      /* J =  7 */
(PID.TID 0000.0001)                 6.757541173817516E+10,      /* J =  8 */
(PID.TID 0000.0001)                 7.256353271748119E+10,      /* J =  9 */
(PID.TID 0000.0001)                 7.699293007098555E+10,      /* J = 10 */
(PID.TID 0000.0001)                 8.084683449728902E+10,      /* J = 11 */
(PID.TID 0000.0001)                 8.410423102799828E+10,      /* J = 12 */
(PID.TID 0000.0001)                 8.674306976737517E+10,      /* J = 13 */
(PID.TID 0000.0001)                 8.874277443041928E+10,      /* J = 14 */
(PID.TID 0000.0001)                 9.008620045350865E+10,      /* J = 15 */
(PID.TID 0000.0001)                 9.076111290418457E+10       /* J = 16 */
(PID.TID 0000.0001)     ;
(PID.TID 0000.0001) rAw =  /* rAw(:,1,:,1) ( units: m^2 ) */
(PID.TID 0000.0001)                 1.216690346714270E+10,      /* I =  1 */
(PID.TID 0000.0001)                 1.974052138506315E+10,      /* I =  2 */
(PID.TID 0000.0001)                 2.943712825252015E+10,      /* I =  3 */
(PID.TID 0000.0001)                 3.801790263324359E+10,      /* I =  4 */
(PID.TID 0000.0001)                 4.571243814189866E+10,      /* I =  5 */
(PID.TID 0000.0001)                 5.269930713599979E+10,      /* I =  6 */
(PID.TID 0000.0001)                 5.907428494299063E+10,      /* I =  7 */
(PID.TID 0000.0001)                 6.488320895111514E+10,      /* I =  8 */
(PID.TID 0000.0001)                 7.014205907741882E+10,      /* I =  9 */
(PID.TID 0000.0001)                 7.484854821847499E+10,      /* I = 10 */
(PID.TID 0000.0001)                 7.898934631431560E+10,      /* I = 11 */
(PID.TID 0000.0001)                 8.254500894894537E+10,      /* I = 12 */
(PID.TID 0000.0001)                 8.549360686473492E+10,      /* I = 13 */
(PID.TID 0000.0001)                 8.781353403175085E+10,      /* I = 14 */
(PID.TID 0000.0001)                 8.948571540392021E+10,      /* I = 15 */
(PID.TID 0000.0001)                 9.049530583086168E+10,      /* I = 16 */
(PID.TID 0000.0001)                 9.083293515008307E+10,      /* I = 17 */
(PID.TID 0000.0001)                 9.049530583087070E+10,      /* I = 18 */
(PID.TID 0000.0001)                 8.948571540391121E+10,      /* I = 19 */
(PID.TID 0000.0001)                 8.781353403174185E+10,      /* I = 20 */
(PID.TID 0000.0001)                 8.549360686467184E+10,      /* I = 21 */
(PID.TID 0000.0001)                 8.254500894890933E+10,      /* I = 22 */
(PID.TID 0000.0001)                 7.898934631434262E+10,      /* I = 23 */
(PID.TID 0000.0001)                 7.484854821844795E+10,      /* I = 24 */
(PID.TID 0000.0001)                 7.014205907742783E+10,      /* I = 25 */
(PID.TID 0000.0001)                 6.488320895111514E+10,      /* I = 26 */
(PID.TID 0000.0001)                 5.907428494299063E+10,      /* I = 27 */
(PID.TID 0000.0001)                 5.269930713599078E+10,      /* I = 28 */
(PID.TID 0000.0001)                 4.571243814190767E+10,      /* I = 29 */
(PID.TID 0000.0001)                 3.801790263325260E+10,      /* I = 30 */
(PID.TID 0000.0001)                 2.943712825251114E+10,      /* I = 31 */
(PID.TID 0000.0001)                 1.974052138509018E+10,      /* I = 32 */
(PID.TID 0000.0001)                 9.071447638299399E+10,      /* I = 33 */
(PID.TID 0000.0001)                 9.085012105610597E+10,      /* I = 34 */
(PID.TID 0000.0001)                 9.125179254955583E+10,      /* I = 35 */
(PID.TID 0000.0001)                 9.190392048045309E+10,      /* I = 36 */
(PID.TID 0000.0001)                 9.278126467409492E+10,      /* I = 37 */
(PID.TID 0000.0001)                 9.384993610263170E+10,      /* I = 38 */
(PID.TID 0000.0001)                 9.506874487174457E+10,      /* I = 39 */
(PID.TID 0000.0001)                 9.639080978465117E+10,      /* I = 40 */
(PID.TID 0000.0001)                 9.776536132335065E+10,      /* I = 41 */
(PID.TID 0000.0001)                 9.913967116446748E+10,      /* I = 42 */
(PID.TID 0000.0001)                 1.004610434085146E+11,      /* I = 43 */
(PID.TID 0000.0001)                 1.016788034168886E+11,      /* I = 44 */
(PID.TID 0000.0001)                 1.027462190489479E+11,      /* I = 45 */
(PID.TID 0000.0001)                 1.036222871661027E+11,      /* I = 46 */
(PID.TID 0000.0001)                 1.042733173971964E+11,      /* I = 47 */
(PID.TID 0000.0001)                 1.046742473574501E+11       /* I = 48 */
(PID.TID 0000.0001)     ;
(PID.TID 0000.0001) rAw =  /* rAw(1,:,1,:) ( units: m^2 ) */
(PID.TID 0000.0001)                 1.216690346714270E+10,      /* J =  1 */
(PID.TID 0000.0001)                 2.390126200743558E+10,      /* J =  2 */
(PID.TID 0000.0001)                 3.341968103208270E+10,      /* J =  3 */
(PID.TID 0000.0001)                 4.168532893152940E+10,      /* J =  4 */
(PID.TID 0000.0001)                 4.909074590409593E+10,      /* J =  5 */
(PID.TID 0000.0001)                 5.581203765722643E+10,      /* J =  6 */
(PID.TID 0000.0001)                 6.193257577506788E+10,      /* J =  7 */
(PID.TID 0000.0001)                 6.748840226738273E+10,      /* J =  8 */
(PID.TID 0000.0001)                 7.248875782324815E+10,      /* J =  9 */
(PID.TID 0000.0001)                 7.692702995909871E+10,      /* J = 10 */
(PID.TID 0000.0001)                 8.078743937057304E+10,      /* J = 11 */
(PID.TID 0000.0001)                 8.404959656062837E+10,      /* J = 12 */
(PID.TID 0000.0001)                 8.669186205742538E+10,      /* J = 13 */
(PID.TID 0000.0001)                 8.869393350723613E+10,      /* J = 14 */
(PID.TID 0000.0001)                 9.003884657168852E+10,      /* J = 15 */
(PID.TID 0000.0001)                 9.071447638299399E+10       /* J = 16 */
(PID.TID 0000.0001)     ;
(PID.TID 0000.0001) rAs =  /* rAs(:,1,:,1) ( units: m^2 ) */
(PID.TID 0000.0001)                 1.216690346714270E+10,      /* I =  1 */
(PID.TID 0000.0001)                 2.390126200743558E+10,      /* I =  2 */
(PID.TID 0000.0001)                 3.341968103208270E+10,      /* I =  3 */
(PID.TID 0000.0001)                 4.168532893152940E+10,      /* I =  4 */
(PID.TID 0000.0001)                 4.909074590409593E+10,      /* I =  5 */
(PID.TID 0000.0001)                 5.581203765722643E+10,      /* I =  6 */
(PID.TID 0000.0001)                 6.193257577506788E+10,      /* I =  7 */
(PID.TID 0000.0001)                 6.748840226738273E+10,      /* I =  8 */
(PID.TID 0000.0001)                 7.248875782324815E+10,      /* I =  9 */
(PID.TID 0000.0001)                 7.692702995909871E+10,      /* I = 10 */
(PID.TID 0000.0001)                 8.078743937057304E+10,      /* I = 11 */
(PID.TID 0000.0001)                 8.404959656062837E+10,      /* I = 12 */
(PID.TID 0000.0001)                 8.669186205742538E+10,      /* I = 13 */
(PID.TID 0000.0001)                 8.869393350723613E+10,      /* I = 14 */
(PID.TID 0000.0001)                 9.003884657168852E+10,      /* I = 15 */
(PID.TID 0000.0001)     2 @  9.071447638299399E+10,             /* I = 16: 17 */
(PID.TID 0000.0001)                 9.003884657168852E+10,      /* I = 18 */
(PID.TID 0000.0001)                 8.869393350723613E+10,      /* I = 19 */
(PID.TID 0000.0001)                 8.669186205742538E+10,      /* I = 20 */
(PID.TID 0000.0001)                 8.404959656062837E+10,      /* I = 21 */
(PID.TID 0000.0001)                 8.078743937057304E+10,      /* I = 22 */
(PID.TID 0000.0001)                 7.692702995909871E+10,      /* I = 23 */
(PID.TID 0000.0001)                 7.248875782324815E+10,      /* I = 24 */
(PID.TID 0000.0001)                 6.748840226738273E+10,      /* I = 25 */
(PID.TID 0000.0001)                 6.193257577506788E+10,      /* I = 26 */
(PID.TID 0000.0001)                 5.581203765722643E+10,      /* I = 27 */
(PID.TID 0000.0001)                 4.909074590409593E+10,      /* I = 28 */
(PID.TID 0000.0001)                 4.168532893152940E+10,      /* I = 29 */
(PID.TID 0000.0001)                 3.341968103208270E+10,      /* I = 30 */
(PID.TID 0000.0001)                 2.390126200743558E+10,      /* I = 31 */
(PID.TID 0000.0001)                 1.216690346714270E+10,      /* I = 32 */
(PID.TID 0000.0001)                 9.083293515008307E+10,      /* I = 33 */
(PID.TID 0000.0001)                 9.110170898494536E+10,      /* I = 34 */
(PID.TID 0000.0001)                 9.162886297688426E+10,      /* I = 35 */
(PID.TID 0000.0001)                 9.239403136821951E+10,      /* I = 36 */
(PID.TID 0000.0001)                 9.336769520564153E+10,      /* I = 37 */
(PID.TID 0000.0001)                 9.451235404855287E+10,      /* I = 38 */
(PID.TID 0000.0001)                 9.578399259392229E+10,      /* I = 39 */
(PID.TID 0000.0001)                 9.713377776174072E+10,      /* I = 40 */
(PID.TID 0000.0001)                 9.850992024629108E+10,      /* I = 41 */
(PID.TID 0000.0001)                 9.985963523714983E+10,      /* I = 42 */
(PID.TID 0000.0001)                 1.011311375396738E+11,      /* I = 43 */
(PID.TID 0000.0001)                 1.022756055022041E+11,      /* I = 44 */
(PID.TID 0000.0001)                 1.032490462723345E+11,      /* I = 45 */
(PID.TID 0000.0001)                 1.040139933533592E+11,      /* I = 46 */
(PID.TID 0000.0001)                 1.045409681097387E+11,      /* I = 47 */
(PID.TID 0000.0001)                 1.048096527455915E+11       /* I = 48 */
(PID.TID 0000.0001)     ;
(PID.TID 0000.0001) rAs =  /* rAs(1,:,1,:) ( units: m^2 ) */
(PID.TID 0000.0001)                 1.216690346714270E+10,      /* J =  1 */
(PID.TID 0000.0001)                 1.974052138506315E+10,      /* J =  2 */
(PID.TID 0000.0001)                 2.943712825252015E+10,      /* J =  3 */
(PID.TID 0000.0001)                 3.801790263324359E+10,      /* J =  4 */
(PID.TID 0000.0001)                 4.571243814189866E+10,      /* J =  5 */
(PID.TID 0000.0001)                 5.269930713599979E+10,      /* J =  6 */
(PID.TID 0000.0001)                 5.907428494299063E+10,      /* J =  7 */
(PID.TID 0000.0001)                 6.488320895111514E+10,      /* J =  8 */
(PID.TID 0000.0001)                 7.014205907741882E+10,      /* J =  9 */
(PID.TID 0000.0001)                 7.484854821847499E+10,      /* J = 10 */
(PID.TID 0000.0001)                 7.898934631431560E+10,      /* J = 11 */
(PID.TID 0000.0001)                 8.254500894894537E+10,      /* J = 12 */
(PID.TID 0000.0001)                 8.549360686473492E+10,      /* J = 13 */
(PID.TID 0000.0001)                 8.781353403175085E+10,      /* J = 14 */
(PID.TID 0000.0001)                 8.948571540392021E+10,      /* J = 15 */
(PID.TID 0000.0001)                 9.049530583086168E+10       /* J = 16 */
(PID.TID 0000.0001)     ;
(PID.TID 0000.0001) globalArea = /* Integrated horizontal Area (m^2) */
(PID.TID 0000.0001)                 3.638867375081599E+14
(PID.TID 0000.0001)     ;
(PID.TID 0000.0001) rAc_3dMean = /* 3-D Averaged grid-cell Area (m^2) */
(PID.TID 0000.0001)                 8.204975138237117E+10
(PID.TID 0000.0001)     ;
(PID.TID 0000.0001) n2dWetPts = /* Number of wet surface points (-) */
(PID.TID 0000.0001)                 4.420000000000000E+03
(PID.TID 0000.0001)     ;
(PID.TID 0000.0001) n3dWetPts = /* Number of wet grid points (-) */
(PID.TID 0000.0001)                 1.857860000000000E+05
(PID.TID 0000.0001)     ;
(PID.TID 0000.0001) hasWetCSCorners = /* Domain contains CS corners (True/False) */
(PID.TID 0000.0001)                   T
(PID.TID 0000.0001)     ;
(PID.TID 0000.0001) // =======================================================
(PID.TID 0000.0001) // End of Model config. summary
(PID.TID 0000.0001) // =======================================================
(PID.TID 0000.0001) 
(PID.TID 0000.0001) == Packages configuration : Check & print summary ==
(PID.TID 0000.0001) 
(PID.TID 0000.0001) GGL90_CHECK: #define ALLOW_GGL90
(PID.TID 0000.0001) GGL90_CHECK: Some form of convection has been enabled
(PID.TID 0000.0001) GMREDI_CHECK: #define GMREDI
(PID.TID 0000.0001) GM_AdvForm =     /* if FALSE => use SkewFlux Form */
(PID.TID 0000.0001)                   T
(PID.TID 0000.0001)     ;
(PID.TID 0000.0001) GM_InMomAsStress = /* if TRUE => apply as Eddy Stress */
(PID.TID 0000.0001)                   F
(PID.TID 0000.0001)     ;
(PID.TID 0000.0001) GM_AdvSeparate = /* Calc Bolus & Euler Adv. separately */
(PID.TID 0000.0001)                   F
(PID.TID 0000.0001)     ;
(PID.TID 0000.0001) GM_ExtraDiag =   /* Tensor Extra Diag (line 1&2) non 0 */
(PID.TID 0000.0001)                   T
(PID.TID 0000.0001)     ;
(PID.TID 0000.0001) GM_isopycK =    /* Background Isopyc. Diffusivity [m^2/s] */
(PID.TID 0000.0001)                 1.000000000000000E+03
(PID.TID 0000.0001)     ;
(PID.TID 0000.0001) GM_advec*K =    /* Backg. GM-Advec(=Bolus) Diffusivity [m^2/s] */
(PID.TID 0000.0001)                 1.000000000000000E+03
(PID.TID 0000.0001)     ;
(PID.TID 0000.0001) GM_skewflx*K =  /* Background GM_SkewFlx Diffusivity [m^2/s] */
(PID.TID 0000.0001)                 0.000000000000000E+00
(PID.TID 0000.0001)     ;
(PID.TID 0000.0001) GM_isoFac_calcK = /* Fraction of dynamic K added to Redi tensor */
(PID.TID 0000.0001)                 1.000000000000000E+00
(PID.TID 0000.0001)     ;
(PID.TID 0000.0001) GM_Kmin_horiz = /* Minimum Horizontal Diffusivity [m^2/s] */
(PID.TID 0000.0001)                 1.000000000000000E+02
(PID.TID 0000.0001)     ;
(PID.TID 0000.0001) GM_Visbeck_alpha = /* Visbeck alpha coeff. [-] */
(PID.TID 0000.0001)                 0.000000000000000E+00
(PID.TID 0000.0001)     ;
(PID.TID 0000.0001) GM_Small_Number =  /* epsilon used in slope calc */
(PID.TID 0000.0001)                 9.999999999999999E-21
(PID.TID 0000.0001)     ;
(PID.TID 0000.0001) GM_slopeSqCutoff = /* Slope^2 cut-off value */
(PID.TID 0000.0001)                 1.000000000000000E+08
(PID.TID 0000.0001)     ;
(PID.TID 0000.0001) GM_taper_scheme =  /* Type of Tapering/Clipping scheme */
(PID.TID 0000.0001)               'stableGmAdjTap                          '
(PID.TID 0000.0001)     ;
(PID.TID 0000.0001) GM_maxSlope =  /* Maximum Slope (Tapering/Clipping) */
(PID.TID 0000.0001)                 4.000000000000000E-03
(PID.TID 0000.0001)     ;
(PID.TID 0000.0001) GM_facTrL2dz = /* Minimum Trans.Layer Thick. (factor of dz) */
(PID.TID 0000.0001)                 1.000000000000000E+00
(PID.TID 0000.0001)     ;
(PID.TID 0000.0001) GM_facTrL2ML = /* Max.Trans.Layer Thick. (factor of MxL Depth)*/
(PID.TID 0000.0001)                 5.000000000000000E+00
(PID.TID 0000.0001)     ;
(PID.TID 0000.0001) GM_maxTransLay = /* Maximum Transition Layer Thickness [m] */
(PID.TID 0000.0001)                 5.000000000000000E+02
(PID.TID 0000.0001)     ;
(PID.TID 0000.0001) GM_UseBVP = /* if TRUE => use bvp a la Ferrari et al. (2010) */
(PID.TID 0000.0001)                   F
(PID.TID 0000.0001)     ;
(PID.TID 0000.0001) GM_BVP_ModeNumber = /* Vertical mode number for BVP wave speed */
(PID.TID 0000.0001)                       1
(PID.TID 0000.0001)     ;
(PID.TID 0000.0001) GM_BVP_cMin = /* Minimum wave speed for BVP [m/s] */
(PID.TID 0000.0001)                 1.000000000000000E-01
(PID.TID 0000.0001)     ;
(PID.TID 0000.0001) GM_useSubMeso = /* if TRUE => use Sub-Meso param. (B.Fox-Kemper) */
(PID.TID 0000.0001)                   F
(PID.TID 0000.0001)     ;
(PID.TID 0000.0001) subMeso_Ceff = /* efficiency coeff. of Mixed-Layer Eddies [-] */
(PID.TID 0000.0001)                 7.000000000000001E-02
(PID.TID 0000.0001)     ;
(PID.TID 0000.0001) subMeso_invTau = /* inverse of Sub-Meso mixing time-scale [/s] */
(PID.TID 0000.0001)                 2.000000000000000E-06
(PID.TID 0000.0001)     ;
(PID.TID 0000.0001) subMeso_LfMin = /* minimum length-scale "Lf" [m] */
(PID.TID 0000.0001)                 1.000000000000000E+03
(PID.TID 0000.0001)     ;
(PID.TID 0000.0001) subMeso_Lmax = /* maximum grid-scale length [m] */
(PID.TID 0000.0001)                 1.100000000000000E+05
(PID.TID 0000.0001)     ;
(PID.TID 0000.0001) GM_useLeithQG = /* if TRUE => add QG Leith viscosity to GMRedi tensor */
(PID.TID 0000.0001)                   F
(PID.TID 0000.0001)     ;
(PID.TID 0000.0001) GM_useGEOM = /* using GEOMETRIC */
(PID.TID 0000.0001)                   F
(PID.TID 0000.0001)     ;
(PID.TID 0000.0001) EXF_CHECK: #define ALLOW_EXF
(PID.TID 0000.0001) SEAICE_CHECK: #define ALLOW_SEAICE
(PID.TID 0000.0001) SALT_PLUME_CHECK: #define SALT_PLUME
(PID.TID 0000.0001) CTRL_CHECK:  --> Starts to check CTRL set-up
(PID.TID 0000.0001) CTRL_CHECK:  <-- Ends Normally
(PID.TID 0000.0001) 
(PID.TID 0000.0001) COST_CHECK: #define ALLOW_COST
(PID.TID 0000.0001) ECCO_CHECK:  --> Starts to check ECCO set-up
(PID.TID 0000.0001) etagcm defined by gencost =  1
(PID.TID 0000.0001) 
(PID.TID 0000.0001) // =======================================================
(PID.TID 0000.0001) // ECCO configuration >>> START <<<
(PID.TID 0000.0001) // =======================================================
(PID.TID 0000.0001) 
(PID.TID 0000.0001) gencost( 1) = etastep
(PID.TID 0000.0001) -------------
(PID.TID 0000.0001)  data file = some_eta_step.bin
(PID.TID 0000.0001)   starts and ends at :
(PID.TID 0000.0001)   19480101  120000  2   7
(PID.TID 0000.0001)   19480101  200000  2   7
(PID.TID 0000.0001)   number of records =     9
(PID.TID 0000.0001)  model file = m_etastep
(PID.TID 0000.0001)  error file = some_eta_sigma.bin
(PID.TID 0000.0001)  preprocess = clim
(PID.TID 0000.0001)  posprocess = smooth
(PID.TID 0000.0001)  gencost_flag =  1
(PID.TID 0000.0001)  gencost_outputlevel =  1
(PID.TID 0000.0001)  gencost_kLev_select =  1
(PID.TID 0000.0001) 
(PID.TID 0000.0001) gencost( 2) = sststep
(PID.TID 0000.0001) -------------
(PID.TID 0000.0001)  data file = some_sst_step.bin
(PID.TID 0000.0001)   starts and ends at :
(PID.TID 0000.0001)   19480101  120000  2   7
(PID.TID 0000.0001)   19480101  200000  2   7
(PID.TID 0000.0001)   number of records =     9
(PID.TID 0000.0001)  model file = m_sststep
(PID.TID 0000.0001)  error file = some_sst_sigma.bin
(PID.TID 0000.0001)  posprocess = smooth
(PID.TID 0000.0001)  gencost_flag =  1
(PID.TID 0000.0001)  gencost_outputlevel =  1
(PID.TID 0000.0001)  gencost_kLev_select =  1
(PID.TID 0000.0001) 
(PID.TID 0000.0001) // =======================================================
(PID.TID 0000.0001) // ECCO configuration  >>> END <<<
(PID.TID 0000.0001) // =======================================================
(PID.TID 0000.0001) 
(PID.TID 0000.0001) ECCO_CHECK:  <-- Ends Normally
(PID.TID 0000.0001) 
(PID.TID 0000.0001) GRDCHK_CHECK: grdchk package
(PID.TID 0000.0001) 
(PID.TID 0000.0001) // =======================================================
(PID.TID 0000.0001) // Gradient check configuration  >>> START <<<
(PID.TID 0000.0001) // =======================================================
(PID.TID 0000.0001) 
(PID.TID 0000.0001)   grdchkvarindex :                      4
(PID.TID 0000.0001)   matching CTRL xx_file:       "xx_atempA"
(PID.TID 0000.0001)   eps =                         1.000E-02
(PID.TID 0000.0001)   First location:                       1
(PID.TID 0000.0001)   Last location:                        4
(PID.TID 0000.0001)   Increment:                            1
(PID.TID 0000.0001)   grdchkWhichProc:                      0
(PID.TID 0000.0001)   iLocTile =      1 ,   jLocTile =      1
(PID.TID 0000.0001) 
(PID.TID 0000.0001) // =======================================================
(PID.TID 0000.0001) // Gradient check configuration  >>> END <<<
(PID.TID 0000.0001) // =======================================================
(PID.TID 0000.0001) 
(PID.TID 0000.0001) GAD_CHECK: #define ALLOW_GENERIC_ADVDIFF
(PID.TID 0000.0001) // =======================================================
(PID.TID 0000.0001) // Check Model config. (CONFIG_CHECK):
(PID.TID 0000.0001) // CONFIG_CHECK : Normal End
(PID.TID 0000.0001) // =======================================================
(PID.TID 0000.0001) 
(PID.TID 0000.0001) Start initial hydrostatic pressure computation
(PID.TID 0000.0001) Pressure is predetermined for buoyancyRelation OCEANIC
(PID.TID 0000.0001) 
(PID.TID 0000.0001) // =======================================================
(PID.TID 0000.0001) // Begin MONITOR dynamic field statistics
(PID.TID 0000.0001) // =======================================================
(PID.TID 0000.0001) %MON time_tsnumber                =                     0
(PID.TID 0000.0001) %MON time_secondsf                =   0.0000000000000E+00
(PID.TID 0000.0001) %MON dynstat_eta_max              =   0.0000000000000E+00
(PID.TID 0000.0001) %MON dynstat_eta_min              =   0.0000000000000E+00
(PID.TID 0000.0001) %MON dynstat_eta_mean             =   0.0000000000000E+00
(PID.TID 0000.0001) %MON dynstat_eta_sd               =   0.0000000000000E+00
(PID.TID 0000.0001) %MON dynstat_eta_del2             =   0.0000000000000E+00
(PID.TID 0000.0001) %MON dynstat_uvel_max             =   0.0000000000000E+00
(PID.TID 0000.0001) %MON dynstat_uvel_min             =   0.0000000000000E+00
(PID.TID 0000.0001) %MON dynstat_uvel_mean            =   0.0000000000000E+00
(PID.TID 0000.0001) %MON dynstat_uvel_sd              =   0.0000000000000E+00
(PID.TID 0000.0001) %MON dynstat_uvel_del2            =   0.0000000000000E+00
(PID.TID 0000.0001) %MON dynstat_vvel_max             =   0.0000000000000E+00
(PID.TID 0000.0001) %MON dynstat_vvel_min             =   0.0000000000000E+00
(PID.TID 0000.0001) %MON dynstat_vvel_mean            =   0.0000000000000E+00
(PID.TID 0000.0001) %MON dynstat_vvel_sd              =   0.0000000000000E+00
(PID.TID 0000.0001) %MON dynstat_vvel_del2            =   0.0000000000000E+00
(PID.TID 0000.0001) %MON dynstat_wvel_max             =   0.0000000000000E+00
(PID.TID 0000.0001) %MON dynstat_wvel_min             =   0.0000000000000E+00
(PID.TID 0000.0001) %MON dynstat_wvel_mean            =   0.0000000000000E+00
(PID.TID 0000.0001) %MON dynstat_wvel_sd              =   0.0000000000000E+00
(PID.TID 0000.0001) %MON dynstat_wvel_del2            =   0.0000000000000E+00
(PID.TID 0000.0001) %MON dynstat_theta_max            =   3.0250358581543E+01
(PID.TID 0000.0001) %MON dynstat_theta_min            =  -1.9540429115295E+00
(PID.TID 0000.0001) %MON dynstat_theta_mean           =   3.5950366197190E+00
(PID.TID 0000.0001) %MON dynstat_theta_sd             =   4.4462651796052E+00
(PID.TID 0000.0001) %MON dynstat_theta_del2           =   1.6262218662243E-03
(PID.TID 0000.0001) %MON dynstat_salt_max             =   4.1000000000000E+01
(PID.TID 0000.0001) %MON dynstat_salt_min             =   2.9000000000000E+01
(PID.TID 0000.0001) %MON dynstat_salt_mean            =   3.4726326276874E+01
(PID.TID 0000.0001) %MON dynstat_salt_sd              =   4.0085357985152E-01
(PID.TID 0000.0001) %MON dynstat_salt_del2            =   3.3800732881832E-04
(PID.TID 0000.0001) %MON trAdv_CFL_u_max              =   0.0000000000000E+00
(PID.TID 0000.0001) %MON trAdv_CFL_v_max              =   0.0000000000000E+00
(PID.TID 0000.0001) %MON trAdv_CFL_w_max              =   0.0000000000000E+00
(PID.TID 0000.0001) %MON advcfl_uvel_max              =   0.0000000000000E+00
(PID.TID 0000.0001) %MON advcfl_vvel_max              =   0.0000000000000E+00
(PID.TID 0000.0001) %MON advcfl_wvel_max              =   0.0000000000000E+00
(PID.TID 0000.0001) %MON advcfl_W_hf_max              =   0.0000000000000E+00
(PID.TID 0000.0001) %MON pe_b_mean                    =   0.0000000000000E+00
(PID.TID 0000.0001) %MON ke_max                       =   0.0000000000000E+00
(PID.TID 0000.0001) %MON ke_mean                      =   0.0000000000000E+00
(PID.TID 0000.0001) %MON ke_vol                       =   1.3542980227617E+18
(PID.TID 0000.0001) %MON vort_r_min                   =   0.0000000000000E+00
(PID.TID 0000.0001) %MON vort_r_max                   =   0.0000000000000E+00
(PID.TID 0000.0001) %MON vort_a_mean                  =  -1.9720793743754E-05
(PID.TID 0000.0001) %MON vort_a_sd                    =   7.5194714484209E-05
(PID.TID 0000.0001) %MON vort_p_mean                  =  -2.3385747453960E-05
(PID.TID 0000.0001) %MON vort_p_sd                    =   1.1230106999018E-04
(PID.TID 0000.0001) %MON surfExpan_theta_mean         =   0.0000000000000E+00
(PID.TID 0000.0001) %MON surfExpan_salt_mean          =   0.0000000000000E+00
(PID.TID 0000.0001) // =======================================================
(PID.TID 0000.0001) // End MONITOR dynamic field statistics
(PID.TID 0000.0001) // =======================================================
(PID.TID 0000.0001) // =======================================================
(PID.TID 0000.0001) // Begin MONITOR SEAICE statistics
(PID.TID 0000.0001) // =======================================================
(PID.TID 0000.0001) %MON seaice_tsnumber              =                     0
(PID.TID 0000.0001) %MON seaice_time_sec              =   0.0000000000000E+00
(PID.TID 0000.0001) %MON seaice_uice_max              =   0.0000000000000E+00
(PID.TID 0000.0001) %MON seaice_uice_min              =   0.0000000000000E+00
(PID.TID 0000.0001) %MON seaice_uice_mean             =   0.0000000000000E+00
(PID.TID 0000.0001) %MON seaice_uice_sd               =   0.0000000000000E+00
(PID.TID 0000.0001) %MON seaice_uice_del2             =   0.0000000000000E+00
(PID.TID 0000.0001) %MON seaice_vice_max              =   0.0000000000000E+00
(PID.TID 0000.0001) %MON seaice_vice_min              =   0.0000000000000E+00
(PID.TID 0000.0001) %MON seaice_vice_mean             =   0.0000000000000E+00
(PID.TID 0000.0001) %MON seaice_vice_sd               =   0.0000000000000E+00
(PID.TID 0000.0001) %MON seaice_vice_del2             =   0.0000000000000E+00
(PID.TID 0000.0001) %MON seaice_area_max              =   0.0000000000000E+00
(PID.TID 0000.0001) %MON seaice_area_min              =   0.0000000000000E+00
(PID.TID 0000.0001) %MON seaice_area_mean             =   0.0000000000000E+00
(PID.TID 0000.0001) %MON seaice_area_sd               =   0.0000000000000E+00
(PID.TID 0000.0001) %MON seaice_area_del2             =   0.0000000000000E+00
(PID.TID 0000.0001) %MON seaice_heff_max              =   0.0000000000000E+00
(PID.TID 0000.0001) %MON seaice_heff_min              =   0.0000000000000E+00
(PID.TID 0000.0001) %MON seaice_heff_mean             =   0.0000000000000E+00
(PID.TID 0000.0001) %MON seaice_heff_sd               =   0.0000000000000E+00
(PID.TID 0000.0001) %MON seaice_heff_del2             =   0.0000000000000E+00
(PID.TID 0000.0001) %MON seaice_hsnow_max             =   0.0000000000000E+00
(PID.TID 0000.0001) %MON seaice_hsnow_min             =   0.0000000000000E+00
(PID.TID 0000.0001) %MON seaice_hsnow_mean            =   0.0000000000000E+00
(PID.TID 0000.0001) %MON seaice_hsnow_sd              =   0.0000000000000E+00
(PID.TID 0000.0001) %MON seaice_hsnow_del2            =   0.0000000000000E+00
(PID.TID 0000.0001) // =======================================================
(PID.TID 0000.0001) // End MONITOR SEAICE statistics
(PID.TID 0000.0001) // =======================================================
(PID.TID 0000.0001) whio : create lev 3 rec   9
(PID.TID 0000.0001) whio : write lev 3 rec   1
(PID.TID 0000.0001) whio : create lev 2 rec   9
(PID.TID 0000.0001) // =======================================================
(PID.TID 0000.0001) // Begin MONITOR EXF statistics
(PID.TID 0000.0001) // =======================================================
(PID.TID 0000.0001) %MON exf_tsnumber                 =                     0
(PID.TID 0000.0001) %MON exf_time_sec                 =   0.0000000000000E+00
(PID.TID 0000.0001) %MON exf_ustress_max              =   1.1522614646989E+00
(PID.TID 0000.0001) %MON exf_ustress_min              =  -7.9472462321778E-01
(PID.TID 0000.0001) %MON exf_ustress_mean             =  -6.2253112371673E-03
(PID.TID 0000.0001) %MON exf_ustress_sd               =   1.1732273794343E-01
(PID.TID 0000.0001) %MON exf_ustress_del2             =   1.8840777343650E-03
(PID.TID 0000.0001) %MON exf_vstress_max              =   1.7432104413259E+00
(PID.TID 0000.0001) %MON exf_vstress_min              =  -1.1754161466367E+00
(PID.TID 0000.0001) %MON exf_vstress_mean             =  -2.0359911690660E-02
(PID.TID 0000.0001) %MON exf_vstress_sd               =   1.1976747552370E-01
(PID.TID 0000.0001) %MON exf_vstress_del2             =   1.9450364315321E-03
(PID.TID 0000.0001) %MON exf_hflux_max                =   9.6166702213717E+02
(PID.TID 0000.0001) %MON exf_hflux_min                =  -2.7158733727438E+02
(PID.TID 0000.0001) %MON exf_hflux_mean               =  -1.0179368021832E+01
(PID.TID 0000.0001) %MON exf_hflux_sd                 =   1.7021621923668E+02
(PID.TID 0000.0001) %MON exf_hflux_del2               =   1.9416422525113E+00
(PID.TID 0000.0001) %MON exf_sflux_max                =   1.9581753374148E-07
(PID.TID 0000.0001) %MON exf_sflux_min                =  -1.2500822951711E-07
(PID.TID 0000.0001) %MON exf_sflux_mean               =   1.6681569196660E-09
(PID.TID 0000.0001) %MON exf_sflux_sd                 =   3.4688564915311E-08
(PID.TID 0000.0001) %MON exf_sflux_del2               =   4.8891264934365E-10
(PID.TID 0000.0001) %MON exf_uwind_max                =   2.0860738329561E+01
(PID.TID 0000.0001) %MON exf_uwind_min                =  -1.8430840732697E+01
(PID.TID 0000.0001) %MON exf_uwind_mean               =  -5.3733325327735E-01
(PID.TID 0000.0001) %MON exf_uwind_sd                 =   5.9272447408738E+00
(PID.TID 0000.0001) %MON exf_uwind_del2               =   9.3928447988652E-02
(PID.TID 0000.0001) %MON exf_vwind_max                =   2.5321903731717E+01
(PID.TID 0000.0001) %MON exf_vwind_min                =  -2.1275566953749E+01
(PID.TID 0000.0001) %MON exf_vwind_mean               =  -1.6721390706625E+00
(PID.TID 0000.0001) %MON exf_vwind_sd                 =   5.8251949456150E+00
(PID.TID 0000.0001) %MON exf_vwind_del2               =   9.5536154988922E-02
(PID.TID 0000.0001) %MON exf_wspeed_max               =   2.5568045924531E+01
(PID.TID 0000.0001) %MON exf_wspeed_min               =   3.8263317846434E-01
(PID.TID 0000.0001) %MON exf_wspeed_mean              =   7.8139300062484E+00
(PID.TID 0000.0001) %MON exf_wspeed_sd                =   3.3305255331254E+00
(PID.TID 0000.0001) %MON exf_wspeed_del2              =   9.2486075582712E-02
(PID.TID 0000.0001) %MON exf_atemp_max                =   3.0427942262314E+02
(PID.TID 0000.0001) %MON exf_atemp_min                =   2.3115790325848E+02
(PID.TID 0000.0001) %MON exf_atemp_mean               =   2.8924749306250E+02
(PID.TID 0000.0001) %MON exf_atemp_sd                 =   1.2640811150614E+01
(PID.TID 0000.0001) %MON exf_atemp_del2               =   1.5218096614704E-01
(PID.TID 0000.0001) %MON exf_aqh_max                  =   2.1509759853571E-02
(PID.TID 0000.0001) %MON exf_aqh_min                  =  -7.3791298412708E-04
(PID.TID 0000.0001) %MON exf_aqh_mean                 =   1.1106008065461E-02
(PID.TID 0000.0001) %MON exf_aqh_sd                   =   5.7776803619327E-03
(PID.TID 0000.0001) %MON exf_aqh_del2                 =   9.2605876253702E-05
(PID.TID 0000.0001) %MON exf_lwflux_max               =   1.4167633857200E+02
(PID.TID 0000.0001) %MON exf_lwflux_min               =   2.1604527382750E+01
(PID.TID 0000.0001) %MON exf_lwflux_mean              =   5.7523130449950E+01
(PID.TID 0000.0001) %MON exf_lwflux_sd                =   1.7751600143345E+01
(PID.TID 0000.0001) %MON exf_lwflux_del2              =   4.3530220506968E-01
(PID.TID 0000.0001) %MON exf_evap_max                 =   2.3038671079334E-07
(PID.TID 0000.0001) %MON exf_evap_min                 =  -3.0941414016950E-08
(PID.TID 0000.0001) %MON exf_evap_mean                =   3.7351071689545E-08
(PID.TID 0000.0001) %MON exf_evap_sd                  =   2.5899056584349E-08
(PID.TID 0000.0001) %MON exf_evap_del2                =   5.0452209667951E-10
(PID.TID 0000.0001) %MON exf_precip_max               =   1.3952020600973E-07
(PID.TID 0000.0001) %MON exf_precip_min               =   5.3486228464102E-10
(PID.TID 0000.0001) %MON exf_precip_mean              =   3.5682914769879E-08
(PID.TID 0000.0001) %MON exf_precip_sd                =   2.7031607497543E-08
(PID.TID 0000.0001) %MON exf_precip_del2              =   3.5134892686758E-10
(PID.TID 0000.0001) %MON exf_swflux_max               =  -0.0000000000000E+00
(PID.TID 0000.0001) %MON exf_swflux_min               =  -3.0798548080635E+02
(PID.TID 0000.0001) %MON exf_swflux_mean              =  -1.8591177421038E+02
(PID.TID 0000.0001) %MON exf_swflux_sd                =   8.1419977130857E+01
(PID.TID 0000.0001) %MON exf_swflux_del2              =   1.4907766955980E+00
(PID.TID 0000.0001) %MON exf_swdown_max               =   3.2974890878624E+02
(PID.TID 0000.0001) %MON exf_swdown_min               =   0.0000000000000E+00
(PID.TID 0000.0001) %MON exf_swdown_mean              =   1.9904900879056E+02
(PID.TID 0000.0001) %MON exf_swdown_sd                =   8.7173423052309E+01
(PID.TID 0000.0001) %MON exf_swdown_del2              =   1.5961206590985E+00
(PID.TID 0000.0001) %MON exf_lwdown_max               =   4.3346188201475E+02
(PID.TID 0000.0001) %MON exf_lwdown_min               =   1.7039117065578E+02
(PID.TID 0000.0001) %MON exf_lwdown_mean              =   3.5336448250249E+02
(PID.TID 0000.0001) %MON exf_lwdown_sd                =   5.7676954184704E+01
(PID.TID 0000.0001) %MON exf_lwdown_del2              =   2.6123616407635E+00
(PID.TID 0000.0001) %MON exf_climsss_max              =   3.9970559643161E+01
(PID.TID 0000.0001) %MON exf_climsss_min              =   1.7855153914421E+01
(PID.TID 0000.0001) %MON exf_climsss_mean             =   3.4682895412505E+01
(PID.TID 0000.0001) %MON exf_climsss_sd               =   1.4109882129859E+00
(PID.TID 0000.0001) %MON exf_climsss_del2             =   4.9144362345097E-03
(PID.TID 0000.0001) // =======================================================
(PID.TID 0000.0001) // End MONITOR EXF statistics
(PID.TID 0000.0001) // =======================================================
(PID.TID 0000.0001) SOLVE_FOR_PRESSURE: putPmEinXvector =    F
 cg2d: Sum(rhs),rhsMax =   1.13674863689203E-01  6.80494402321960E+00
 cg2d: Sum(rhs),rhsMax =   1.86851253537569E-01  8.23075697484959E+00
(PID.TID 0000.0001)      cg2d_init_res =   1.52329042814256E+00
(PID.TID 0000.0001)      cg2d_iters(min,last) =      -1      48
(PID.TID 0000.0001)      cg2d_last_res =   6.57933138692382E-10
(PID.TID 0000.0001) // =======================================================
(PID.TID 0000.0001) // Begin MONITOR dynamic field statistics
(PID.TID 0000.0001) // =======================================================
(PID.TID 0000.0001) %MON time_tsnumber                =                     2
(PID.TID 0000.0001) %MON time_secondsf                =   7.2000000000000E+03
(PID.TID 0000.0001) %MON dynstat_eta_max              =   7.7220921237260E-01
(PID.TID 0000.0001) %MON dynstat_eta_min              =  -6.4941547703982E-01
(PID.TID 0000.0001) %MON dynstat_eta_mean             =  -3.2880529874425E-04
(PID.TID 0000.0001) %MON dynstat_eta_sd               =   1.8092937315121E-01
(PID.TID 0000.0001) %MON dynstat_eta_del2             =   1.2533470859263E-03
(PID.TID 0000.0001) %MON dynstat_uvel_max             =   4.2884747902342E-01
(PID.TID 0000.0001) %MON dynstat_uvel_min             =  -3.2920099515752E-01
(PID.TID 0000.0001) %MON dynstat_uvel_mean            =  -5.1022121945135E-04
(PID.TID 0000.0001) %MON dynstat_uvel_sd              =   1.1132333146418E-02
(PID.TID 0000.0001) %MON dynstat_uvel_del2            =   3.4603773798761E-05
(PID.TID 0000.0001) %MON dynstat_vvel_max             =   6.2938616682011E-01
(PID.TID 0000.0001) %MON dynstat_vvel_min             =  -4.8459289499601E-01
(PID.TID 0000.0001) %MON dynstat_vvel_mean            =  -2.8963805761874E-04
(PID.TID 0000.0001) %MON dynstat_vvel_sd              =   1.1940014052025E-02
(PID.TID 0000.0001) %MON dynstat_vvel_del2            =   3.6784833454996E-05
(PID.TID 0000.0001) %MON dynstat_wvel_max             =   1.2769957186966E-03
(PID.TID 0000.0001) %MON dynstat_wvel_min             =  -8.5132839434102E-04
(PID.TID 0000.0001) %MON dynstat_wvel_mean            =  -4.3215993754327E-07
(PID.TID 0000.0001) %MON dynstat_wvel_sd              =   3.5248722869772E-05
(PID.TID 0000.0001) %MON dynstat_wvel_del2            =   1.3390630402163E-07
(PID.TID 0000.0001) %MON dynstat_theta_max            =   3.0155011860620E+01
(PID.TID 0000.0001) %MON dynstat_theta_min            =  -1.9415803793004E+00
(PID.TID 0000.0001) %MON dynstat_theta_mean           =   3.5950191627412E+00
(PID.TID 0000.0001) %MON dynstat_theta_sd             =   4.4461504100991E+00
(PID.TID 0000.0001) %MON dynstat_theta_del2           =   1.6298206552466E-03
(PID.TID 0000.0001) %MON dynstat_salt_max             =   4.1000610213820E+01
(PID.TID 0000.0001) %MON dynstat_salt_min             =   2.8994047407304E+01
(PID.TID 0000.0001) %MON dynstat_salt_mean            =   3.4726327878018E+01
(PID.TID 0000.0001) %MON dynstat_salt_sd              =   4.0073441860537E-01
(PID.TID 0000.0001) %MON dynstat_salt_del2            =   3.3826907220576E-04
(PID.TID 0000.0001) %MON trAdv_CFL_u_max              =   5.8507032403794E-03
(PID.TID 0000.0001) %MON trAdv_CFL_v_max              =   8.2027998161712E-03
(PID.TID 0000.0001) %MON trAdv_CFL_w_max              =   6.1449686104180E-02
(PID.TID 0000.0001) %MON advcfl_uvel_max              =   5.2427386411364E-03
(PID.TID 0000.0001) %MON advcfl_vvel_max              =   7.5390992443238E-03
(PID.TID 0000.0001) %MON advcfl_wvel_max              =   6.4309484055638E-02
(PID.TID 0000.0001) %MON advcfl_W_hf_max              =   6.7154361575435E-02
(PID.TID 0000.0001) %MON pe_b_mean                    =   4.3129344679861E-05
(PID.TID 0000.0001) %MON ke_max                       =   1.8017215196435E-01
(PID.TID 0000.0001) %MON ke_mean                      =   1.2284241717710E-04
(PID.TID 0000.0001) %MON ke_vol                       =   1.3542979625808E+18
(PID.TID 0000.0001) %MON vort_r_min                   =  -1.5299161372366E-06
(PID.TID 0000.0001) %MON vort_r_max                   =   2.7209700135405E-06
(PID.TID 0000.0001) %MON vort_a_mean                  =  -1.9720793743754E-05
(PID.TID 0000.0001) %MON vort_a_sd                    =   7.5194081320198E-05
(PID.TID 0000.0001) %MON vort_p_mean                  =  -2.3385746079982E-05
(PID.TID 0000.0001) %MON vort_p_sd                    =   1.1229941854223E-04
(PID.TID 0000.0001) %MON surfExpan_theta_mean         =   3.0823556648655E-05
(PID.TID 0000.0001) %MON surfExpan_salt_mean          =   1.0328655665451E-06
(PID.TID 0000.0001) // =======================================================
(PID.TID 0000.0001) // End MONITOR dynamic field statistics
(PID.TID 0000.0001) // =======================================================
(PID.TID 0000.0001) // =======================================================
(PID.TID 0000.0001) // Begin MONITOR SEAICE statistics
(PID.TID 0000.0001) // =======================================================
(PID.TID 0000.0001) %MON seaice_tsnumber              =                     2
(PID.TID 0000.0001) %MON seaice_time_sec              =   7.2000000000000E+03
(PID.TID 0000.0001) %MON seaice_uice_max              =   4.0000000000000E-01
(PID.TID 0000.0001) %MON seaice_uice_min              =  -4.0000000000000E-01
(PID.TID 0000.0001) %MON seaice_uice_mean             =  -1.0677224251052E-02
(PID.TID 0000.0001) %MON seaice_uice_sd               =   1.0561021612741E-01
(PID.TID 0000.0001) %MON seaice_uice_del2             =   1.3843152618827E-03
(PID.TID 0000.0001) %MON seaice_vice_max              =   4.0000000000000E-01
(PID.TID 0000.0001) %MON seaice_vice_min              =  -4.0000000000000E-01
(PID.TID 0000.0001) %MON seaice_vice_mean             =  -2.8384336991929E-02
(PID.TID 0000.0001) %MON seaice_vice_sd               =   1.0030070093728E-01
(PID.TID 0000.0001) %MON seaice_vice_del2             =   1.3490617541085E-03
(PID.TID 0000.0001) %MON seaice_area_max              =   4.2316610830307E-02
(PID.TID 0000.0001) %MON seaice_area_min              =   0.0000000000000E+00
(PID.TID 0000.0001) %MON seaice_area_mean             =   8.2151899265431E-04
(PID.TID 0000.0001) %MON seaice_area_sd               =   4.4433173167401E-03
(PID.TID 0000.0001) %MON seaice_area_del2             =   4.2069671225245E-05
(PID.TID 0000.0001) %MON seaice_heff_max              =   1.9985149435318E-02
(PID.TID 0000.0001) %MON seaice_heff_min              =   0.0000000000000E+00
(PID.TID 0000.0001) %MON seaice_heff_mean             =   3.7179066075316E-04
(PID.TID 0000.0001) %MON seaice_heff_sd               =   2.0562010400924E-03
(PID.TID 0000.0001) %MON seaice_heff_del2             =   1.9770376439949E-05
(PID.TID 0000.0001) %MON seaice_hsnow_max             =   3.8515326361719E-06
(PID.TID 0000.0001) %MON seaice_hsnow_min             =   0.0000000000000E+00
(PID.TID 0000.0001) %MON seaice_hsnow_mean            =   3.3791280225950E-08
(PID.TID 0000.0001) %MON seaice_hsnow_sd              =   2.1330417351116E-07
(PID.TID 0000.0001) %MON seaice_hsnow_del2            =   2.9935128849924E-09
(PID.TID 0000.0001) // =======================================================
(PID.TID 0000.0001) // End MONITOR SEAICE statistics
(PID.TID 0000.0001) // =======================================================
(PID.TID 0000.0001) // =======================================================
(PID.TID 0000.0001) // Begin MONITOR EXF statistics
(PID.TID 0000.0001) // =======================================================
(PID.TID 0000.0001) %MON exf_tsnumber                 =                     2
(PID.TID 0000.0001) %MON exf_time_sec                 =   7.2000000000000E+03
(PID.TID 0000.0001) %MON exf_ustress_max              =   1.3804934888869E+00
(PID.TID 0000.0001) %MON exf_ustress_min              =  -1.0625427774594E+00
(PID.TID 0000.0001) %MON exf_ustress_mean             =  -6.2958860065017E-03
(PID.TID 0000.0001) %MON exf_ustress_sd               =   1.2365246201893E-01
(PID.TID 0000.0001) %MON exf_ustress_del2             =   2.0719433665251E-03
(PID.TID 0000.0001) %MON exf_vstress_max              =   1.9350726166585E+00
(PID.TID 0000.0001) %MON exf_vstress_min              =  -1.1098269576598E+00
(PID.TID 0000.0001) %MON exf_vstress_mean             =  -2.0697151866441E-02
(PID.TID 0000.0001) %MON exf_vstress_sd               =   1.2473697632454E-01
(PID.TID 0000.0001) %MON exf_vstress_del2             =   2.0422854006223E-03
(PID.TID 0000.0001) %MON exf_hflux_max                =   9.3296438538170E+02
(PID.TID 0000.0001) %MON exf_hflux_min                =  -3.0209634519796E+02
(PID.TID 0000.0001) %MON exf_hflux_mean               =  -9.7950490307336E+00
(PID.TID 0000.0001) %MON exf_hflux_sd                 =   1.7048015364020E+02
(PID.TID 0000.0001) %MON exf_hflux_del2               =   1.9540816099781E+00
(PID.TID 0000.0001) %MON exf_sflux_max                =   1.9623201657504E-07
(PID.TID 0000.0001) %MON exf_sflux_min                =  -1.1928804646883E-07
(PID.TID 0000.0001) %MON exf_sflux_mean               =   1.8286605260008E-09
(PID.TID 0000.0001) %MON exf_sflux_sd                 =   3.4752807499888E-08
(PID.TID 0000.0001) %MON exf_sflux_del2               =   4.9664847413388E-10
(PID.TID 0000.0001) %MON exf_uwind_max                =   2.3362609121512E+01
(PID.TID 0000.0001) %MON exf_uwind_min                =  -2.0010170945956E+01
(PID.TID 0000.0001) %MON exf_uwind_mean               =  -5.3546021455717E-01
(PID.TID 0000.0001) %MON exf_uwind_sd                 =   6.0077171273651E+00
(PID.TID 0000.0001) %MON exf_uwind_del2               =   8.5651241151945E-02
(PID.TID 0000.0001) %MON exf_vwind_max                =   2.6407284425580E+01
(PID.TID 0000.0001) %MON exf_vwind_min                =  -1.9935248047561E+01
(PID.TID 0000.0001) %MON exf_vwind_mean               =  -1.6622684381680E+00
(PID.TID 0000.0001) %MON exf_vwind_sd                 =   5.8893788788418E+00
(PID.TID 0000.0001) %MON exf_vwind_del2               =   8.7397876695318E-02
(PID.TID 0000.0001) %MON exf_wspeed_max               =   2.6409713750035E+01
(PID.TID 0000.0001) %MON exf_wspeed_min               =   3.0493174862650E-01
(PID.TID 0000.0001) %MON exf_wspeed_mean              =   7.9091469168305E+00
(PID.TID 0000.0001) %MON exf_wspeed_sd                =   3.3574838362795E+00
(PID.TID 0000.0001) %MON exf_wspeed_del2              =   9.3552081007714E-02
(PID.TID 0000.0001) %MON exf_atemp_max                =   3.0335556946636E+02
(PID.TID 0000.0001) %MON exf_atemp_min                =   2.3193997711843E+02
(PID.TID 0000.0001) %MON exf_atemp_mean               =   2.8925575264114E+02
(PID.TID 0000.0001) %MON exf_atemp_sd                 =   1.2620790142095E+01
(PID.TID 0000.0001) %MON exf_atemp_del2               =   1.5216643861187E-01
(PID.TID 0000.0001) %MON exf_aqh_max                  =   2.1591946486677E-02
(PID.TID 0000.0001) %MON exf_aqh_min                  =  -8.0521899733026E-04
(PID.TID 0000.0001) %MON exf_aqh_mean                 =   1.1113554851881E-02
(PID.TID 0000.0001) %MON exf_aqh_sd                   =   5.7788679701839E-03
(PID.TID 0000.0001) %MON exf_aqh_del2                 =   9.2750966976554E-05
(PID.TID 0000.0001) %MON exf_lwflux_max               =   1.4041454851418E+02
(PID.TID 0000.0001) %MON exf_lwflux_min               =   2.1469334891229E+01
(PID.TID 0000.0001) %MON exf_lwflux_mean              =   5.7488730803779E+01
(PID.TID 0000.0001) %MON exf_lwflux_sd                =   1.7682145855986E+01
(PID.TID 0000.0001) %MON exf_lwflux_del2              =   4.3484485085450E-01
(PID.TID 0000.0001) %MON exf_evap_max                 =   2.3080696933284E-07
(PID.TID 0000.0001) %MON exf_evap_min                 =  -3.8416655458582E-08
(PID.TID 0000.0001) %MON exf_evap_mean                =   3.7511177569986E-08
(PID.TID 0000.0001) %MON exf_evap_sd                  =   2.6148510918329E-08
(PID.TID 0000.0001) %MON exf_evap_del2                =   5.1311523361645E-10
(PID.TID 0000.0001) %MON exf_precip_max               =   1.3952202593044E-07
(PID.TID 0000.0001) %MON exf_precip_min               =   5.3281786289283E-10
(PID.TID 0000.0001) %MON exf_precip_mean              =   3.5682517043986E-08
(PID.TID 0000.0001) %MON exf_precip_sd                =   2.7035955953610E-08
(PID.TID 0000.0001) %MON exf_precip_del2              =   3.5133667034981E-10
(PID.TID 0000.0001) %MON exf_swflux_max               =  -0.0000000000000E+00
(PID.TID 0000.0001) %MON exf_swflux_min               =  -3.0822007805507E+02
(PID.TID 0000.0001) %MON exf_swflux_mean              =  -1.8592838177972E+02
(PID.TID 0000.0001) %MON exf_swflux_sd                =   8.1374007675622E+01
(PID.TID 0000.0001) %MON exf_swflux_del2              =   1.4905145237257E+00
(PID.TID 0000.0001) %MON exf_swdown_max               =   3.3000008357074E+02
(PID.TID 0000.0001) %MON exf_swdown_min               =   0.0000000000000E+00
(PID.TID 0000.0001) %MON exf_swdown_mean              =   1.9906678991405E+02
(PID.TID 0000.0001) %MON exf_swdown_sd                =   8.7124205220152E+01
(PID.TID 0000.0001) %MON exf_swdown_del2              =   1.5958399611624E+00
(PID.TID 0000.0001) %MON exf_lwdown_max               =   4.3311745988668E+02
(PID.TID 0000.0001) %MON exf_lwdown_min               =   1.7145585457904E+02
(PID.TID 0000.0001) %MON exf_lwdown_mean              =   3.5336133373691E+02
(PID.TID 0000.0001) %MON exf_lwdown_sd                =   5.7644206765705E+01
(PID.TID 0000.0001) %MON exf_lwdown_del2              =   2.6118634371158E+00
(PID.TID 0000.0001) %MON exf_climsss_max              =   3.9969883734180E+01
(PID.TID 0000.0001) %MON exf_climsss_min              =   1.7857444619620E+01
(PID.TID 0000.0001) %MON exf_climsss_mean             =   3.4682918388776E+01
(PID.TID 0000.0001) %MON exf_climsss_sd               =   1.4108091793549E+00
(PID.TID 0000.0001) %MON exf_climsss_del2             =   4.9147138764479E-03
(PID.TID 0000.0001) // =======================================================
(PID.TID 0000.0001) // End MONITOR EXF statistics
(PID.TID 0000.0001) // =======================================================
 cg2d: Sum(rhs),rhsMax =   2.87992650799733E-01  7.97821468767044E+00
 cg2d: Sum(rhs),rhsMax =   3.94276103300438E-01  7.74858747615991E+00
(PID.TID 0000.0001)      cg2d_init_res =   8.84404459441547E-01
(PID.TID 0000.0001)      cg2d_iters(min,last) =      -1      47
(PID.TID 0000.0001)      cg2d_last_res =   9.19496287074656E-10
(PID.TID 0000.0001) // =======================================================
(PID.TID 0000.0001) // Begin MONITOR dynamic field statistics
(PID.TID 0000.0001) // =======================================================
(PID.TID 0000.0001) %MON time_tsnumber                =                     4
(PID.TID 0000.0001) %MON time_secondsf                =   1.4400000000000E+04
(PID.TID 0000.0001) %MON dynstat_eta_max              =   1.0890399859476E+00
(PID.TID 0000.0001) %MON dynstat_eta_min              =  -9.6303095657177E-01
(PID.TID 0000.0001) %MON dynstat_eta_mean             =  -6.5316966869627E-04
(PID.TID 0000.0001) %MON dynstat_eta_sd               =   3.1483051158071E-01
(PID.TID 0000.0001) %MON dynstat_eta_del2             =   1.1622406823897E-03
(PID.TID 0000.0001) %MON dynstat_uvel_max             =   4.6559728187354E-01
(PID.TID 0000.0001) %MON dynstat_uvel_min             =  -3.9607176004071E-01
(PID.TID 0000.0001) %MON dynstat_uvel_mean            =  -1.7209205641515E-03
(PID.TID 0000.0001) %MON dynstat_uvel_sd              =   1.6623668989460E-02
(PID.TID 0000.0001) %MON dynstat_uvel_del2            =   6.0707197794201E-05
(PID.TID 0000.0001) %MON dynstat_vvel_max             =   8.3668913068591E-01
(PID.TID 0000.0001) %MON dynstat_vvel_min             =  -4.5770785448588E-01
(PID.TID 0000.0001) %MON dynstat_vvel_mean            =  -1.3543044502951E-03
(PID.TID 0000.0001) %MON dynstat_vvel_sd              =   1.8535215424847E-02
(PID.TID 0000.0001) %MON dynstat_vvel_del2            =   6.4450935831190E-05
(PID.TID 0000.0001) %MON dynstat_wvel_max             =   2.4517272117841E-03
(PID.TID 0000.0001) %MON dynstat_wvel_min             =  -1.6939945389333E-03
(PID.TID 0000.0001) %MON dynstat_wvel_mean            =  -2.3620798722830E-07
(PID.TID 0000.0001) %MON dynstat_wvel_sd              =   5.6089420220952E-05
(PID.TID 0000.0001) %MON dynstat_wvel_del2            =   2.2375217889677E-07
(PID.TID 0000.0001) %MON dynstat_theta_max            =   3.0154466181263E+01
(PID.TID 0000.0001) %MON dynstat_theta_min            =  -1.9396257620890E+00
(PID.TID 0000.0001) %MON dynstat_theta_mean           =   3.5950347075526E+00
(PID.TID 0000.0001) %MON dynstat_theta_sd             =   4.4461507190538E+00
(PID.TID 0000.0001) %MON dynstat_theta_del2           =   1.6271652594152E-03
(PID.TID 0000.0001) %MON dynstat_salt_max             =   4.0987305399354E+01
(PID.TID 0000.0001) %MON dynstat_salt_min             =   2.8987645798361E+01
(PID.TID 0000.0001) %MON dynstat_salt_mean            =   3.4726330465243E+01
(PID.TID 0000.0001) %MON dynstat_salt_sd              =   4.0070201458295E-01
(PID.TID 0000.0001) %MON dynstat_salt_del2            =   3.3772566990058E-04
(PID.TID 0000.0001) %MON trAdv_CFL_u_max              =   7.1338171517743E-03
(PID.TID 0000.0001) %MON trAdv_CFL_v_max              =   8.5802354497477E-03
(PID.TID 0000.0001) %MON trAdv_CFL_w_max              =   1.1640240911757E-01
(PID.TID 0000.0001) %MON advcfl_uvel_max              =   6.4564500167921E-03
(PID.TID 0000.0001) %MON advcfl_vvel_max              =   9.8555597219715E-03
(PID.TID 0000.0001) %MON advcfl_wvel_max              =   1.2173753949865E-01
(PID.TID 0000.0001) %MON advcfl_W_hf_max              =   1.2711488263958E-01
(PID.TID 0000.0001) %MON pe_b_mean                    =   1.3057232672842E-04
(PID.TID 0000.0001) %MON ke_max                       =   1.7930399137743E-01
(PID.TID 0000.0001) %MON ke_mean                      =   2.8764669840987E-04
(PID.TID 0000.0001) %MON ke_vol                       =   1.3542978440074E+18
(PID.TID 0000.0001) %MON vort_r_min                   =  -2.7575486455732E-06
(PID.TID 0000.0001) %MON vort_r_max                   =   2.7180825447811E-06
(PID.TID 0000.0001) %MON vort_a_mean                  =  -1.9720793743754E-05
(PID.TID 0000.0001) %MON vort_a_sd                    =   7.5193096777662E-05
(PID.TID 0000.0001) %MON vort_p_mean                  =  -2.3385737833612E-05
(PID.TID 0000.0001) %MON vort_p_sd                    =   1.1229623570993E-04
(PID.TID 0000.0001) %MON surfExpan_theta_mean         =   2.7366959017430E-05
(PID.TID 0000.0001) %MON surfExpan_salt_mean          =   1.1276265061556E-06
(PID.TID 0000.0001) // =======================================================
(PID.TID 0000.0001) // End MONITOR dynamic field statistics
(PID.TID 0000.0001) // =======================================================
(PID.TID 0000.0001) // =======================================================
(PID.TID 0000.0001) // Begin MONITOR SEAICE statistics
(PID.TID 0000.0001) // =======================================================
(PID.TID 0000.0001) %MON seaice_tsnumber              =                     4
(PID.TID 0000.0001) %MON seaice_time_sec              =   1.4400000000000E+04
(PID.TID 0000.0001) %MON seaice_uice_max              =   4.0000000000000E-01
(PID.TID 0000.0001) %MON seaice_uice_min              =  -4.0000000000000E-01
(PID.TID 0000.0001) %MON seaice_uice_mean             =  -1.6266137751041E-02
(PID.TID 0000.0001) %MON seaice_uice_sd               =   1.6328426396184E-01
(PID.TID 0000.0001) %MON seaice_uice_del2             =   2.0463181892151E-03
(PID.TID 0000.0001) %MON seaice_vice_max              =   4.0000000000000E-01
(PID.TID 0000.0001) %MON seaice_vice_min              =  -4.0000000000000E-01
(PID.TID 0000.0001) %MON seaice_vice_mean             =  -4.5201857258777E-02
(PID.TID 0000.0001) %MON seaice_vice_sd               =   1.5861474366225E-01
(PID.TID 0000.0001) %MON seaice_vice_del2             =   2.0924955862063E-03
(PID.TID 0000.0001) %MON seaice_area_max              =   8.4037768357112E-02
(PID.TID 0000.0001) %MON seaice_area_min              =   0.0000000000000E+00
(PID.TID 0000.0001) %MON seaice_area_mean             =   1.7185050080749E-03
(PID.TID 0000.0001) %MON seaice_area_sd               =   9.1432894603598E-03
(PID.TID 0000.0001) %MON seaice_area_del2             =   8.5498880902605E-05
(PID.TID 0000.0001) %MON seaice_heff_max              =   3.8672995800898E-02
(PID.TID 0000.0001) %MON seaice_heff_min              =   0.0000000000000E+00
(PID.TID 0000.0001) %MON seaice_heff_mean             =   7.3851543123580E-04
(PID.TID 0000.0001) %MON seaice_heff_sd               =   4.0696195560034E-03
(PID.TID 0000.0001) %MON seaice_heff_del2             =   3.8091517956141E-05
(PID.TID 0000.0001) %MON seaice_hsnow_max             =   2.2787068335388E-05
(PID.TID 0000.0001) %MON seaice_hsnow_min             =   0.0000000000000E+00
(PID.TID 0000.0001) %MON seaice_hsnow_mean            =   1.8953534523258E-07
(PID.TID 0000.0001) %MON seaice_hsnow_sd              =   1.1994419297786E-06
(PID.TID 0000.0001) %MON seaice_hsnow_del2            =   2.0121073029074E-08
(PID.TID 0000.0001) // =======================================================
(PID.TID 0000.0001) // End MONITOR SEAICE statistics
(PID.TID 0000.0001) // =======================================================
(PID.TID 0000.0001) // =======================================================
(PID.TID 0000.0001) // Begin MONITOR EXF statistics
(PID.TID 0000.0001) // =======================================================
(PID.TID 0000.0001) %MON exf_tsnumber                 =                     4
(PID.TID 0000.0001) %MON exf_time_sec                 =   1.4400000000000E+04
(PID.TID 0000.0001) %MON exf_ustress_max              =   1.3844270228191E+00
(PID.TID 0000.0001) %MON exf_ustress_min              =  -1.0417589747852E+00
(PID.TID 0000.0001) %MON exf_ustress_mean             =  -6.6384275529289E-03
(PID.TID 0000.0001) %MON exf_ustress_sd               =   1.2478616714212E-01
(PID.TID 0000.0001) %MON exf_ustress_del2             =   2.0841802031600E-03
(PID.TID 0000.0001) %MON exf_vstress_max              =   2.0853724252863E+00
(PID.TID 0000.0001) %MON exf_vstress_min              =  -8.4277893213134E-01
(PID.TID 0000.0001) %MON exf_vstress_mean             =  -2.0460748762186E-02
(PID.TID 0000.0001) %MON exf_vstress_sd               =   1.2540791040528E-01
(PID.TID 0000.0001) %MON exf_vstress_del2             =   2.0118677110530E-03
(PID.TID 0000.0001) %MON exf_hflux_max                =   9.1688174316807E+02
(PID.TID 0000.0001) %MON exf_hflux_min                =  -3.0463291109476E+02
(PID.TID 0000.0001) %MON exf_hflux_mean               =  -1.0187055236954E+01
(PID.TID 0000.0001) %MON exf_hflux_sd                 =   1.7000241603256E+02
(PID.TID 0000.0001) %MON exf_hflux_del2               =   1.9628274369813E+00
(PID.TID 0000.0001) %MON exf_sflux_max                =   1.8894177709336E-07
(PID.TID 0000.0001) %MON exf_sflux_min                =  -1.1883687342025E-07
(PID.TID 0000.0001) %MON exf_sflux_mean               =   1.7343418042547E-09
(PID.TID 0000.0001) %MON exf_sflux_sd                 =   3.4711017202921E-08
(PID.TID 0000.0001) %MON exf_sflux_del2               =   5.0142891545261E-10
(PID.TID 0000.0001) %MON exf_uwind_max                =   2.3182695081118E+01
(PID.TID 0000.0001) %MON exf_uwind_min                =  -2.0198948751322E+01
(PID.TID 0000.0001) %MON exf_uwind_mean               =  -5.5593456160356E-01
(PID.TID 0000.0001) %MON exf_uwind_sd                 =   6.0227235401069E+00
(PID.TID 0000.0001) %MON exf_uwind_del2               =   8.5696988030255E-02
(PID.TID 0000.0001) %MON exf_vwind_max                =   2.6951704182367E+01
(PID.TID 0000.0001) %MON exf_vwind_min                =  -1.7873572476238E+01
(PID.TID 0000.0001) %MON exf_vwind_mean               =  -1.6512137649007E+00
(PID.TID 0000.0001) %MON exf_vwind_sd                 =   5.8915018504591E+00
(PID.TID 0000.0001) %MON exf_vwind_del2               =   8.6795295775799E-02
(PID.TID 0000.0001) %MON exf_wspeed_max               =   2.7219951183493E+01
(PID.TID 0000.0001) %MON exf_wspeed_min               =   1.9899058985537E-01
(PID.TID 0000.0001) %MON exf_wspeed_mean              =   7.9195929056136E+00
(PID.TID 0000.0001) %MON exf_wspeed_sd                =   3.3613406905665E+00
(PID.TID 0000.0001) %MON exf_wspeed_del2              =   9.3871228383689E-02
(PID.TID 0000.0001) %MON exf_atemp_max                =   3.0318708226233E+02
(PID.TID 0000.0001) %MON exf_atemp_min                =   2.3221217962885E+02
(PID.TID 0000.0001) %MON exf_atemp_mean               =   2.8925304776576E+02
(PID.TID 0000.0001) %MON exf_atemp_sd                 =   1.2597993404784E+01
(PID.TID 0000.0001) %MON exf_atemp_del2               =   1.5202000603516E-01
(PID.TID 0000.0001) %MON exf_aqh_max                  =   2.1604232678911E-02
(PID.TID 0000.0001) %MON exf_aqh_min                  =  -8.3511021461176E-04
(PID.TID 0000.0001) %MON exf_aqh_mean                 =   1.1117401875187E-02
(PID.TID 0000.0001) %MON exf_aqh_sd                   =   5.7762631202966E-03
(PID.TID 0000.0001) %MON exf_aqh_del2                 =   9.2739950111696E-05
(PID.TID 0000.0001) %MON exf_lwflux_max               =   1.3923613550090E+02
(PID.TID 0000.0001) %MON exf_lwflux_min               =   2.1258430936134E+01
(PID.TID 0000.0001) %MON exf_lwflux_mean              =   5.7462505392711E+01
(PID.TID 0000.0001) %MON exf_lwflux_sd                =   1.7625796830368E+01
(PID.TID 0000.0001) %MON exf_lwflux_del2              =   4.3452027264085E-01
(PID.TID 0000.0001) %MON exf_evap_max                 =   2.2352250555712E-07
(PID.TID 0000.0001) %MON exf_evap_min                 =  -3.8337592337249E-08
(PID.TID 0000.0001) %MON exf_evap_mean                =   3.7416461122347E-08
(PID.TID 0000.0001) %MON exf_evap_sd                  =   2.6208879767518E-08
(PID.TID 0000.0001) %MON exf_evap_del2                =   5.1871791513571E-10
(PID.TID 0000.0001) %MON exf_precip_max               =   1.3952384585115E-07
(PID.TID 0000.0001) %MON exf_precip_min               =   5.3077344114464E-10
(PID.TID 0000.0001) %MON exf_precip_mean              =   3.5682119318092E-08
(PID.TID 0000.0001) %MON exf_precip_sd                =   2.7040348785954E-08
(PID.TID 0000.0001) %MON exf_precip_del2              =   3.5132492275588E-10
(PID.TID 0000.0001) %MON exf_swflux_max               =  -0.0000000000000E+00
(PID.TID 0000.0001) %MON exf_swflux_min               =  -3.0845467530380E+02
(PID.TID 0000.0001) %MON exf_swflux_mean              =  -1.8594498934906E+02
(PID.TID 0000.0001) %MON exf_swflux_sd                =   8.1334977965151E+01
(PID.TID 0000.0001) %MON exf_swflux_del2              =   1.4904150598609E+00
(PID.TID 0000.0001) %MON exf_swdown_max               =   3.3025125835525E+02
(PID.TID 0000.0001) %MON exf_swdown_min               =   0.0000000000000E+00
(PID.TID 0000.0001) %MON exf_swdown_mean              =   1.9908457103754E+02
(PID.TID 0000.0001) %MON exf_swdown_sd                =   8.7082417521575E+01
(PID.TID 0000.0001) %MON exf_swdown_del2              =   1.5957334688018E+00
(PID.TID 0000.0001) %MON exf_lwdown_max               =   4.3277303775860E+02
(PID.TID 0000.0001) %MON exf_lwdown_min               =   1.7252053850229E+02
(PID.TID 0000.0001) %MON exf_lwdown_mean              =   3.5335818497133E+02
(PID.TID 0000.0001) %MON exf_lwdown_sd                =   5.7612778170263E+01
(PID.TID 0000.0001) %MON exf_lwdown_del2              =   2.6113817908779E+00
(PID.TID 0000.0001) %MON exf_climsss_max              =   3.9969207825199E+01
(PID.TID 0000.0001) %MON exf_climsss_min              =   1.7859735324819E+01
(PID.TID 0000.0001) %MON exf_climsss_mean             =   3.4682941365048E+01
(PID.TID 0000.0001) %MON exf_climsss_sd               =   1.4106306244971E+00
(PID.TID 0000.0001) %MON exf_climsss_del2             =   4.9150146478629E-03
(PID.TID 0000.0001) // =======================================================
(PID.TID 0000.0001) // End MONITOR EXF statistics
(PID.TID 0000.0001) // =======================================================
 cg2d: Sum(rhs),rhsMax =   4.95270753311019E-01  7.65934820675236E+00
 cg2d: Sum(rhs),rhsMax =   5.92660207482506E-01  7.61970515877181E+00
(PID.TID 0000.0001)      cg2d_init_res =   6.51870870684699E-01
(PID.TID 0000.0001)      cg2d_iters(min,last) =      -1      46
(PID.TID 0000.0001)      cg2d_last_res =   9.43883227761028E-10
(PID.TID 0000.0001) // =======================================================
(PID.TID 0000.0001) // Begin MONITOR dynamic field statistics
(PID.TID 0000.0001) // =======================================================
(PID.TID 0000.0001) %MON time_tsnumber                =                     6
(PID.TID 0000.0001) %MON time_secondsf                =   2.1600000000000E+04
(PID.TID 0000.0001) %MON dynstat_eta_max              =   1.1390574870710E+00
(PID.TID 0000.0001) %MON dynstat_eta_min              =  -1.1266695324808E+00
(PID.TID 0000.0001) %MON dynstat_eta_mean             =  -9.6548815206935E-04
(PID.TID 0000.0001) %MON dynstat_eta_sd               =   3.7119527919085E-01
(PID.TID 0000.0001) %MON dynstat_eta_del2             =   1.1463461580090E-03
(PID.TID 0000.0001) %MON dynstat_uvel_max             =   5.7251901465213E-01
(PID.TID 0000.0001) %MON dynstat_uvel_min             =  -4.7731680926573E-01
(PID.TID 0000.0001) %MON dynstat_uvel_mean            =  -2.3510302348038E-03
(PID.TID 0000.0001) %MON dynstat_uvel_sd              =   2.0436491859088E-02
(PID.TID 0000.0001) %MON dynstat_uvel_del2            =   8.2992874169774E-05
(PID.TID 0000.0001) %MON dynstat_vvel_max             =   1.1805123296862E+00
(PID.TID 0000.0001) %MON dynstat_vvel_min             =  -6.5077157070281E-01
(PID.TID 0000.0001) %MON dynstat_vvel_mean            =  -2.1367232044503E-03
(PID.TID 0000.0001) %MON dynstat_vvel_sd              =   2.2642424166810E-02
(PID.TID 0000.0001) %MON dynstat_vvel_del2            =   8.8188719804444E-05
(PID.TID 0000.0001) %MON dynstat_wvel_max             =   3.5338487115575E-03
(PID.TID 0000.0001) %MON dynstat_wvel_min             =  -2.5103840646586E-03
(PID.TID 0000.0001) %MON dynstat_wvel_mean            =   6.3673510500975E-08
(PID.TID 0000.0001) %MON dynstat_wvel_sd              =   6.8943369582164E-05
(PID.TID 0000.0001) %MON dynstat_wvel_del2            =   2.9264808108150E-07
(PID.TID 0000.0001) %MON dynstat_theta_max            =   3.0153490706944E+01
(PID.TID 0000.0001) %MON dynstat_theta_min            =  -1.9029464932230E+00
(PID.TID 0000.0001) %MON dynstat_theta_mean           =   3.5950597931848E+00
(PID.TID 0000.0001) %MON dynstat_theta_sd             =   4.4461718921805E+00
(PID.TID 0000.0001) %MON dynstat_theta_del2           =   1.6209151621002E-03
(PID.TID 0000.0001) %MON dynstat_salt_max             =   4.0976493325990E+01
(PID.TID 0000.0001) %MON dynstat_salt_min             =   2.8981819416167E+01
(PID.TID 0000.0001) %MON dynstat_salt_mean            =   3.4726333694657E+01
(PID.TID 0000.0001) %MON dynstat_salt_sd              =   4.0067567206882E-01
(PID.TID 0000.0001) %MON dynstat_salt_del2            =   3.3721088836774E-04
(PID.TID 0000.0001) %MON trAdv_CFL_u_max              =   9.5466576152252E-03
(PID.TID 0000.0001) %MON trAdv_CFL_v_max              =   1.1727681575436E-02
(PID.TID 0000.0001) %MON trAdv_CFL_w_max              =   1.6550012920689E-01
(PID.TID 0000.0001) %MON advcfl_uvel_max              =   7.0353686365119E-03
(PID.TID 0000.0001) %MON advcfl_vvel_max              =   1.3905534733322E-02
(PID.TID 0000.0001) %MON advcfl_wvel_max              =   1.7318209520170E-01
(PID.TID 0000.0001) %MON advcfl_W_hf_max              =   1.8098925323475E-01
(PID.TID 0000.0001) %MON pe_b_mean                    =   1.8146742658676E-04
(PID.TID 0000.0001) %MON ke_max                       =   3.5061127701031E-01
(PID.TID 0000.0001) %MON ke_mean                      =   4.3301720510353E-04
(PID.TID 0000.0001) %MON ke_vol                       =   1.3542977276382E+18
(PID.TID 0000.0001) %MON vort_r_min                   =  -3.7495794247739E-06
(PID.TID 0000.0001) %MON vort_r_max                   =   3.8350324386173E-06
(PID.TID 0000.0001) %MON vort_a_mean                  =  -1.9720793743754E-05
(PID.TID 0000.0001) %MON vort_a_sd                    =   7.5192771506334E-05
(PID.TID 0000.0001) %MON vort_p_mean                  =  -2.3385734511739E-05
(PID.TID 0000.0001) %MON vort_p_sd                    =   1.1229484263698E-04
(PID.TID 0000.0001) %MON surfExpan_theta_mean         =   1.4614782964016E-05
(PID.TID 0000.0001) %MON surfExpan_salt_mean          =   4.6210451893675E-07
(PID.TID 0000.0001) // =======================================================
(PID.TID 0000.0001) // End MONITOR dynamic field statistics
(PID.TID 0000.0001) // =======================================================
(PID.TID 0000.0001) // =======================================================
(PID.TID 0000.0001) // Begin MONITOR SEAICE statistics
(PID.TID 0000.0001) // =======================================================
(PID.TID 0000.0001) %MON seaice_tsnumber              =                     6
(PID.TID 0000.0001) %MON seaice_time_sec              =   2.1600000000000E+04
(PID.TID 0000.0001) %MON seaice_uice_max              =   4.0000000000000E-01
(PID.TID 0000.0001) %MON seaice_uice_min              =  -4.0000000000000E-01
(PID.TID 0000.0001) %MON seaice_uice_mean             =  -1.8883544988468E-02
(PID.TID 0000.0001) %MON seaice_uice_sd               =   1.8855865588987E-01
(PID.TID 0000.0001) %MON seaice_uice_del2             =   2.2806532012025E-03
(PID.TID 0000.0001) %MON seaice_vice_max              =   4.0000000000000E-01
(PID.TID 0000.0001) %MON seaice_vice_min              =  -4.0000000000000E-01
(PID.TID 0000.0001) %MON seaice_vice_mean             =  -5.4666808918926E-02
(PID.TID 0000.0001) %MON seaice_vice_sd               =   1.8652100754083E-01
(PID.TID 0000.0001) %MON seaice_vice_del2             =   2.3474458618646E-03
(PID.TID 0000.0001) %MON seaice_area_max              =   1.2360203961621E-01
(PID.TID 0000.0001) %MON seaice_area_min              =   0.0000000000000E+00
(PID.TID 0000.0001) %MON seaice_area_mean             =   2.5886239339922E-03
(PID.TID 0000.0001) %MON seaice_area_sd               =   1.3669682798322E-02
(PID.TID 0000.0001) %MON seaice_area_del2             =   1.2765191168969E-04
(PID.TID 0000.0001) %MON seaice_heff_max              =   5.6496045389390E-02
(PID.TID 0000.0001) %MON seaice_heff_min              =   0.0000000000000E+00
(PID.TID 0000.0001) %MON seaice_heff_mean             =   1.0915727150083E-03
(PID.TID 0000.0001) %MON seaice_heff_sd               =   6.0053130762635E-03
(PID.TID 0000.0001) %MON seaice_heff_del2             =   5.4907322291087E-05
(PID.TID 0000.0001) %MON seaice_hsnow_max             =   5.5987949550561E-05
(PID.TID 0000.0001) %MON seaice_hsnow_min             =   0.0000000000000E+00
(PID.TID 0000.0001) %MON seaice_hsnow_mean            =   4.7314491461707E-07
(PID.TID 0000.0001) %MON seaice_hsnow_sd              =   3.0012147480019E-06
(PID.TID 0000.0001) %MON seaice_hsnow_del2            =   4.9367759685192E-08
(PID.TID 0000.0001) // =======================================================
(PID.TID 0000.0001) // End MONITOR SEAICE statistics
(PID.TID 0000.0001) // =======================================================
(PID.TID 0000.0001) // =======================================================
(PID.TID 0000.0001) // Begin MONITOR EXF statistics
(PID.TID 0000.0001) // =======================================================
(PID.TID 0000.0001) %MON exf_tsnumber                 =                     6
(PID.TID 0000.0001) %MON exf_time_sec                 =   2.1600000000000E+04
(PID.TID 0000.0001) %MON exf_ustress_max              =   1.1037075319183E+00
(PID.TID 0000.0001) %MON exf_ustress_min              =  -7.9086473787346E-01
(PID.TID 0000.0001) %MON exf_ustress_mean             =  -7.2757391525322E-03
(PID.TID 0000.0001) %MON exf_ustress_sd               =   1.1986047778927E-01
(PID.TID 0000.0001) %MON exf_ustress_del2             =   1.9240206332231E-03
(PID.TID 0000.0001) %MON exf_vstress_max              =   1.7385360531567E+00
(PID.TID 0000.0001) %MON exf_vstress_min              =  -7.8631232392255E-01
(PID.TID 0000.0001) %MON exf_vstress_mean             =  -1.9823714102145E-02
(PID.TID 0000.0001) %MON exf_vstress_sd               =   1.2112287882212E-01
(PID.TID 0000.0001) %MON exf_vstress_del2             =   1.8347808452555E-03
(PID.TID 0000.0001) %MON exf_hflux_max                =   9.2886219769151E+02
(PID.TID 0000.0001) %MON exf_hflux_min                =  -2.8476995925357E+02
(PID.TID 0000.0001) %MON exf_hflux_mean               =  -1.1271891369987E+01
(PID.TID 0000.0001) %MON exf_hflux_sd                 =   1.6836909459000E+02
(PID.TID 0000.0001) %MON exf_hflux_del2               =   1.9183387149987E+00
(PID.TID 0000.0001) %MON exf_sflux_max                =   1.7452539017089E-07
(PID.TID 0000.0001) %MON exf_sflux_min                =  -1.2342284317846E-07
(PID.TID 0000.0001) %MON exf_sflux_mean               =   1.4077497796477E-09
(PID.TID 0000.0001) %MON exf_sflux_sd                 =   3.4416292781655E-08
(PID.TID 0000.0001) %MON exf_sflux_del2               =   4.8574493068860E-10
(PID.TID 0000.0001) %MON exf_uwind_max                =   2.0472183881203E+01
(PID.TID 0000.0001) %MON exf_uwind_min                =  -1.8892726999294E+01
(PID.TID 0000.0001) %MON exf_uwind_mean               =  -5.9875629441651E-01
(PID.TID 0000.0001) %MON exf_uwind_sd                 =   5.9759295007774E+00
(PID.TID 0000.0001) %MON exf_uwind_del2               =   8.2093294037172E-02
(PID.TID 0000.0001) %MON exf_vwind_max                =   2.5398446093788E+01
(PID.TID 0000.0001) %MON exf_vwind_min                =  -1.8180781331323E+01
(PID.TID 0000.0001) %MON exf_vwind_mean               =  -1.6389750508607E+00
(PID.TID 0000.0001) %MON exf_vwind_sd                 =   5.8273953951259E+00
(PID.TID 0000.0001) %MON exf_vwind_del2               =   8.1895904122027E-02
(PID.TID 0000.0001) %MON exf_wspeed_max               =   2.5487856396312E+01
(PID.TID 0000.0001) %MON exf_wspeed_min               =   8.6529810061982E-02
(PID.TID 0000.0001) %MON exf_wspeed_mean              =   7.8462667677611E+00
(PID.TID 0000.0001) %MON exf_wspeed_sd                =   3.3393287672781E+00
(PID.TID 0000.0001) %MON exf_wspeed_del2              =   9.3336019851782E-02
(PID.TID 0000.0001) %MON exf_atemp_max                =   3.0377396101104E+02
(PID.TID 0000.0001) %MON exf_atemp_min                =   2.3197451078973E+02
(PID.TID 0000.0001) %MON exf_atemp_mean               =   2.8923937843637E+02
(PID.TID 0000.0001) %MON exf_atemp_sd                 =   1.2571049820660E+01
(PID.TID 0000.0001) %MON exf_atemp_del2               =   1.5168910867359E-01
(PID.TID 0000.0001) %MON exf_aqh_max                  =   2.1546618430271E-02
(PID.TID 0000.0001) %MON exf_aqh_min                  =  -8.2758663597158E-04
(PID.TID 0000.0001) %MON exf_aqh_mean                 =   1.1117549135381E-02
(PID.TID 0000.0001) %MON exf_aqh_sd                   =   5.7693447327525E-03
(PID.TID 0000.0001) %MON exf_aqh_del2                 =   9.2570459671690E-05
(PID.TID 0000.0001) %MON exf_lwflux_max               =   1.3816578923417E+02
(PID.TID 0000.0001) %MON exf_lwflux_min               =   2.1104555774393E+01
(PID.TID 0000.0001) %MON exf_lwflux_mean              =   5.7446812046679E+01
(PID.TID 0000.0001) %MON exf_lwflux_sd                =   1.7576653104752E+01
(PID.TID 0000.0001) %MON exf_lwflux_del2              =   4.3433120172419E-01
(PID.TID 0000.0001) %MON exf_evap_max                 =   2.0912895594357E-07
(PID.TID 0000.0001) %MON exf_evap_min                 =  -2.7173197745550E-08
(PID.TID 0000.0001) %MON exf_evap_mean                =   3.7089471371846E-08
(PID.TID 0000.0001) %MON exf_evap_sd                  =   2.5811478764647E-08
(PID.TID 0000.0001) %MON exf_evap_del2                =   5.0412193076159E-10
(PID.TID 0000.0001) %MON exf_precip_max               =   1.3952566577185E-07
(PID.TID 0000.0001) %MON exf_precip_min               =   5.2872901939645E-10
(PID.TID 0000.0001) %MON exf_precip_mean              =   3.5681721592199E-08
(PID.TID 0000.0001) %MON exf_precip_sd                =   2.7044785972952E-08
(PID.TID 0000.0001) %MON exf_precip_del2              =   3.5131368413684E-10
(PID.TID 0000.0001) %MON exf_swflux_max               =  -0.0000000000000E+00
(PID.TID 0000.0001) %MON exf_swflux_min               =  -3.0868927255252E+02
(PID.TID 0000.0001) %MON exf_swflux_mean              =  -1.8596159691840E+02
(PID.TID 0000.0001) %MON exf_swflux_sd                =   8.1302897993783E+01
(PID.TID 0000.0001) %MON exf_swflux_del2              =   1.4904783365774E+00
(PID.TID 0000.0001) %MON exf_swdown_max               =   3.3050243313975E+02
(PID.TID 0000.0001) %MON exf_swdown_min               =   0.0000000000000E+00
(PID.TID 0000.0001) %MON exf_swdown_mean              =   1.9910235216103E+02
(PID.TID 0000.0001) %MON exf_swdown_sd                =   8.7048070657155E+01
(PID.TID 0000.0001) %MON exf_swdown_del2              =   1.5958012168923E+00
(PID.TID 0000.0001) %MON exf_lwdown_max               =   4.3242861563053E+02
(PID.TID 0000.0001) %MON exf_lwdown_min               =   1.7265985369293E+02
(PID.TID 0000.0001) %MON exf_lwdown_mean              =   3.5335503620575E+02
(PID.TID 0000.0001) %MON exf_lwdown_sd                =   5.7582670557818E+01
(PID.TID 0000.0001) %MON exf_lwdown_del2              =   2.6109167112130E+00
(PID.TID 0000.0001) %MON exf_climsss_max              =   3.9968531916218E+01
(PID.TID 0000.0001) %MON exf_climsss_min              =   1.7862026030017E+01
(PID.TID 0000.0001) %MON exf_climsss_mean             =   3.4682964341320E+01
(PID.TID 0000.0001) %MON exf_climsss_sd               =   1.4104525485945E+00
(PID.TID 0000.0001) %MON exf_climsss_del2             =   4.9153385445087E-03
(PID.TID 0000.0001) // =======================================================
(PID.TID 0000.0001) // End MONITOR EXF statistics
(PID.TID 0000.0001) // =======================================================
 cg2d: Sum(rhs),rhsMax =   6.88070042799517E-01  7.59584828994187E+00
 cg2d: Sum(rhs),rhsMax =   7.82661243680696E-01  7.57582533116074E+00
(PID.TID 0000.0001)      cg2d_init_res =   5.57970833906411E-01
(PID.TID 0000.0001)      cg2d_iters(min,last) =      -1      46
(PID.TID 0000.0001)      cg2d_last_res =   8.72165674874134E-10
(PID.TID 0000.0001) // =======================================================
(PID.TID 0000.0001) // Begin MONITOR dynamic field statistics
(PID.TID 0000.0001) // =======================================================
(PID.TID 0000.0001) %MON time_tsnumber                =                     8
(PID.TID 0000.0001) %MON time_secondsf                =   2.8800000000000E+04
(PID.TID 0000.0001) %MON dynstat_eta_max              =   1.2517417413664E+00
(PID.TID 0000.0001) %MON dynstat_eta_min              =  -9.5711920359088E-01
(PID.TID 0000.0001) %MON dynstat_eta_mean             =  -1.2676716993124E-03
(PID.TID 0000.0001) %MON dynstat_eta_sd               =   3.7977403021025E-01
(PID.TID 0000.0001) %MON dynstat_eta_del2             =   1.1361004056978E-03
(PID.TID 0000.0001) %MON dynstat_uvel_max             =   6.2994754371174E-01
(PID.TID 0000.0001) %MON dynstat_uvel_min             =  -5.8152033571924E-01
(PID.TID 0000.0001) %MON dynstat_uvel_mean            =  -2.1089658606654E-03
(PID.TID 0000.0001) %MON dynstat_uvel_sd              =   2.2499029751211E-02
(PID.TID 0000.0001) %MON dynstat_uvel_del2            =   1.0094320151325E-04
(PID.TID 0000.0001) %MON dynstat_vvel_max             =   1.4625188164490E+00
(PID.TID 0000.0001) %MON dynstat_vvel_min             =  -8.5209188510815E-01
(PID.TID 0000.0001) %MON dynstat_vvel_mean            =  -2.1681982913951E-03
(PID.TID 0000.0001) %MON dynstat_vvel_sd              =   2.5165811812228E-02
(PID.TID 0000.0001) %MON dynstat_vvel_del2            =   1.0848780971386E-04
(PID.TID 0000.0001) %MON dynstat_wvel_max             =   4.5278920870025E-03
(PID.TID 0000.0001) %MON dynstat_wvel_min             =  -3.2890786384335E-03
(PID.TID 0000.0001) %MON dynstat_wvel_mean            =   1.9072405465265E-07
(PID.TID 0000.0001) %MON dynstat_wvel_sd              =   7.8644189430346E-05
(PID.TID 0000.0001) %MON dynstat_wvel_del2            =   3.4783246311413E-07
(PID.TID 0000.0001) %MON dynstat_theta_max            =   3.0152078185599E+01
(PID.TID 0000.0001) %MON dynstat_theta_min            =  -1.9023458180603E+00
(PID.TID 0000.0001) %MON dynstat_theta_mean           =   3.5950801892053E+00
(PID.TID 0000.0001) %MON dynstat_theta_sd             =   4.4462020491083E+00
(PID.TID 0000.0001) %MON dynstat_theta_del2           =   1.6126513102978E-03
(PID.TID 0000.0001) %MON dynstat_salt_max             =   4.0970750017349E+01
(PID.TID 0000.0001) %MON dynstat_salt_min             =   2.8976439292116E+01
(PID.TID 0000.0001) %MON dynstat_salt_mean            =   3.4726336750298E+01
(PID.TID 0000.0001) %MON dynstat_salt_sd              =   4.0065222985484E-01
(PID.TID 0000.0001) %MON dynstat_salt_del2            =   3.3660976413609E-04
(PID.TID 0000.0001) %MON trAdv_CFL_u_max              =   1.1675502778593E-02
(PID.TID 0000.0001) %MON trAdv_CFL_v_max              =   1.5035601919657E-02
(PID.TID 0000.0001) %MON trAdv_CFL_w_max              =   2.1089633162380E-01
(PID.TID 0000.0001) %MON advcfl_uvel_max              =   7.8753295838550E-03
(PID.TID 0000.0001) %MON advcfl_vvel_max              =   1.7227356029118E-02
(PID.TID 0000.0001) %MON advcfl_wvel_max              =   2.2079446514695E-01
(PID.TID 0000.0001) %MON advcfl_W_hf_max              =   2.3093745471558E-01
(PID.TID 0000.0001) %MON pe_b_mean                    =   1.8987366598998E-04
(PID.TID 0000.0001) %MON ke_max                       =   5.3813407931395E-01
(PID.TID 0000.0001) %MON ke_mean                      =   5.2893724685645E-04
(PID.TID 0000.0001) %MON ke_vol                       =   1.3542976161516E+18
(PID.TID 0000.0001) %MON vort_r_min                   =  -4.4706133438089E-06
(PID.TID 0000.0001) %MON vort_r_max                   =   4.7511635093729E-06
(PID.TID 0000.0001) %MON vort_a_mean                  =  -1.9720793743754E-05
(PID.TID 0000.0001) %MON vort_a_sd                    =   7.5193059943442E-05
(PID.TID 0000.0001) %MON vort_p_mean                  =  -2.3385740316408E-05
(PID.TID 0000.0001) %MON vort_p_sd                    =   1.1229538645657E-04
(PID.TID 0000.0001) %MON surfExpan_theta_mean         =   6.8441826895112E-06
(PID.TID 0000.0001) %MON surfExpan_salt_mean          =  -1.1326267299603E-07
(PID.TID 0000.0001) // =======================================================
(PID.TID 0000.0001) // End MONITOR dynamic field statistics
(PID.TID 0000.0001) // =======================================================
(PID.TID 0000.0001) // =======================================================
(PID.TID 0000.0001) // Begin MONITOR SEAICE statistics
(PID.TID 0000.0001) // =======================================================
(PID.TID 0000.0001) %MON seaice_tsnumber              =                     8
(PID.TID 0000.0001) %MON seaice_time_sec              =   2.8800000000000E+04
(PID.TID 0000.0001) %MON seaice_uice_max              =   4.0000000000000E-01
(PID.TID 0000.0001) %MON seaice_uice_min              =  -4.0000000000000E-01
(PID.TID 0000.0001) %MON seaice_uice_mean             =  -2.0125015706083E-02
(PID.TID 0000.0001) %MON seaice_uice_sd               =   1.9401425196443E-01
(PID.TID 0000.0001) %MON seaice_uice_del2             =   2.4059935392124E-03
(PID.TID 0000.0001) %MON seaice_vice_max              =   4.0000000000000E-01
(PID.TID 0000.0001) %MON seaice_vice_min              =  -4.0000000000000E-01
(PID.TID 0000.0001) %MON seaice_vice_mean             =  -5.6032167482683E-02
(PID.TID 0000.0001) %MON seaice_vice_sd               =   1.9397438201898E-01
(PID.TID 0000.0001) %MON seaice_vice_del2             =   2.4451765116121E-03
(PID.TID 0000.0001) %MON seaice_area_max              =   1.6121956409117E-01
(PID.TID 0000.0001) %MON seaice_area_min              =   0.0000000000000E+00
(PID.TID 0000.0001) %MON seaice_area_mean             =   3.4332297665618E-03
(PID.TID 0000.0001) %MON seaice_area_sd               =   1.8035737713302E-02
(PID.TID 0000.0001) %MON seaice_area_del2             =   1.6753780942344E-04
(PID.TID 0000.0001) %MON seaice_heff_max              =   7.3542283725507E-02
(PID.TID 0000.0001) %MON seaice_heff_min              =   0.0000000000000E+00
(PID.TID 0000.0001) %MON seaice_heff_mean             =   1.4331232104455E-03
(PID.TID 0000.0001) %MON seaice_heff_sd               =   7.8738037375310E-03
(PID.TID 0000.0001) %MON seaice_heff_del2             =   7.0030891670950E-05
(PID.TID 0000.0001) %MON seaice_hsnow_max             =   1.0295657520899E-04
(PID.TID 0000.0001) %MON seaice_hsnow_min             =   0.0000000000000E+00
(PID.TID 0000.0001) %MON seaice_hsnow_mean            =   8.8502147587134E-07
(PID.TID 0000.0001) %MON seaice_hsnow_sd              =   5.6086171146826E-06
(PID.TID 0000.0001) %MON seaice_hsnow_del2            =   9.2814095039265E-08
(PID.TID 0000.0001) // =======================================================
(PID.TID 0000.0001) // End MONITOR SEAICE statistics
(PID.TID 0000.0001) // =======================================================
(PID.TID 0000.0001) %CHECKPOINT         8 ckptA
(PID.TID 0000.0001) 
(PID.TID 0000.0001) == profiles_cost: begin ==
(PID.TID 0000.0001)  profiles_cost( 1, 1) =  0.134973460975100D+04 0.185786000000000D+06
(PID.TID 0000.0001)  profiles_cost( 1, 2) =  0.229260391966868D+05 0.185786000000000D+06
(PID.TID 0000.0001) == profiles_cost: end   ==
(PID.TID 0000.0001) 
(PID.TID 0000.0001)  --> f_profiles = 0.134973460975100D+04 1 1
(PID.TID 0000.0001)  --> f_profiles = 0.229260391966868D+05 1 2
(PID.TID 0000.0001)  --> f_gencost = 0.442644038515654D+04 1
(PID.TID 0000.0001)  --> f_gencost = 0.448722019017134D+04 2
(PID.TID 0000.0001)  --> f_gentim2d = 0.000000000000000D+00 1
(PID.TID 0000.0001)  --> f_gentim2d = 0.000000000000000D+00 2
(PID.TID 0000.0001)  --> f_gentim2d = 0.000000000000000D+00 3
(PID.TID 0000.0001)  --> f_genarr3d = 0.000000000000000D+00 1
(PID.TID 0000.0001)  --> f_genarr3d = 0.000000000000000D+00 2
(PID.TID 0000.0001)  --> f_genarr3d = 0.000000000000000D+00 3
(PID.TID 0000.0001)  --> fc               = 0.331894343817657D+05
(PID.TID 0000.0001) Writing cost function info to costfunction0000
(PID.TID 0000.0001)   early fc =  0.000000000000000D+00
(PID.TID 0000.0001)   local fc =  0.142473214878274D+04
(PID.TID 0000.0001)  global fc =  0.331894343817657D+05
(PID.TID 0000.0001) whio : write lev 2 rec   1
(PID.TID 0000.0001) SOLVE_FOR_PRESSURE: putPmEinXvector =    F
 cg2d: Sum(rhs),rhsMax =   1.13674863689202E-01  6.80494402321960E+00
 cg2d: Sum(rhs),rhsMax =   1.86851253537588E-01  8.23075697484955E+00
 cg2d: Sum(rhs),rhsMax =   2.87992650799742E-01  7.97821468767062E+00
 cg2d: Sum(rhs),rhsMax =   3.94276103300474E-01  7.74858747615994E+00
(PID.TID 0000.0001) whio : write lev 2 rec   2
 cg2d: Sum(rhs),rhsMax =   4.95270753311090E-01  7.65934820675229E+00
 cg2d: Sum(rhs),rhsMax =   5.92660207482545E-01  7.61970515877196E+00
 cg2d: Sum(rhs),rhsMax =   6.88070042799509E-01  7.59584828994228E+00
 cg2d: Sum(rhs),rhsMax =   7.82661243680685E-01  7.57582533116121E+00
(PID.TID 0000.0001) Did not write pickup because writePickupAtEnd = FALSE
(PID.TID 0000.0001) whio : write lev 2 rec   3
 cg2d: Sum(rhs),rhsMax =   4.95270620995271E-01  7.65935025998748E+00
 cg2d: Sum(rhs),rhsMax =   5.92660475395590E-01  7.61970724306709E+00
 cg2d: Sum(rhs),rhsMax =   6.88070473820577E-01  7.59585024200483E+00
 cg2d: Sum(rhs),rhsMax =   7.82661729692801E-01  7.57582726826315E+00
(PID.TID 0000.0001) Did not write pickup because writePickupAtEnd = FALSE
(PID.TID 0000.0001) Did not write pickup because writePickupAtEnd = FALSE
 Calling cg2d from S/R CG2D_MAD
 cg2d: Sum(rhs),rhsMax =   3.55271367880050E-15  2.69820681560877E-03
 Calling cg2d from S/R CG2D_MAD
 cg2d: Sum(rhs),rhsMax =  -5.21804821573824E-15  3.63339520242778E-03
(PID.TID 0000.0001) // =======================================================
(PID.TID 0000.0001) // Begin AD_MONITOR EXF statistics for iwhen =  3
(PID.TID 0000.0001) // =======================================================
(PID.TID 0000.0001) %MON ad_exf_tsnumber              =                     6
(PID.TID 0000.0001) %MON ad_exf_time_sec              =   2.1600000000000E+04
(PID.TID 0000.0001) %MON ad_exf_adfu_max              =   9.7045337537243E-01
(PID.TID 0000.0001) %MON ad_exf_adfu_min              =  -9.2105185264483E-01
(PID.TID 0000.0001) %MON ad_exf_adfu_mean             =  -9.6367239275267E-04
(PID.TID 0000.0001) %MON ad_exf_adfu_sd               =   8.8157598344035E-02
(PID.TID 0000.0001) %MON ad_exf_adfu_del2             =   2.3143093306287E-03
(PID.TID 0000.0001) %MON ad_exf_adfv_max              =   8.1218851813390E-01
(PID.TID 0000.0001) %MON ad_exf_adfv_min              =  -1.2255595067415E+00
(PID.TID 0000.0001) %MON ad_exf_adfv_mean             =  -7.4491995791722E-03
(PID.TID 0000.0001) %MON ad_exf_adfv_sd               =   9.0728080174618E-02
(PID.TID 0000.0001) %MON ad_exf_adfv_del2             =   2.5361216836386E-03
(PID.TID 0000.0001) %MON ad_exf_adqnet_max            =   1.9196606522189E-03
(PID.TID 0000.0001) %MON ad_exf_adqnet_min            =  -2.0875435268828E-03
(PID.TID 0000.0001) %MON ad_exf_adqnet_mean           =  -7.1269086036142E-05
(PID.TID 0000.0001) %MON ad_exf_adqnet_sd             =   4.3544557292297E-04
(PID.TID 0000.0001) %MON ad_exf_adqnet_del2           =   5.7882061494967E-06
(PID.TID 0000.0001) %MON ad_exf_adempmr_max           =   7.1593275376262E+01
(PID.TID 0000.0001) %MON ad_exf_adempmr_min           =  -7.1191562534786E+01
(PID.TID 0000.0001) %MON ad_exf_adempmr_mean          =   7.6098903424990E-01
(PID.TID 0000.0001) %MON ad_exf_adempmr_sd            =   1.1858385729155E+01
(PID.TID 0000.0001) %MON ad_exf_adempmr_del2          =   1.0676631013281E-01
(PID.TID 0000.0001) %MON ad_exf_adqsw_max             =   4.6946736696820E-04
(PID.TID 0000.0001) %MON ad_exf_adqsw_min             =  -4.3345665282855E-04
(PID.TID 0000.0001) %MON ad_exf_adqsw_mean            =   1.6228171838034E-05
(PID.TID 0000.0001) %MON ad_exf_adqsw_sd              =   9.3546584140456E-05
(PID.TID 0000.0001) %MON ad_exf_adqsw_del2            =   1.3311872051252E-06
(PID.TID 0000.0001) // =======================================================
(PID.TID 0000.0001) // End AD_MONITOR EXF statistics for iwhen =  3
(PID.TID 0000.0001) // =======================================================
(PID.TID 0000.0001) // =======================================================
(PID.TID 0000.0001) // Begin AD_MONITOR dynamic field statistics
(PID.TID 0000.0001) // =======================================================
(PID.TID 0000.0001) %MON ad_time_tsnumber             =                     6
(PID.TID 0000.0001) %MON ad_time_secondsf             =   2.1600000000000E+04
(PID.TID 0000.0001) %MON ad_dynstat_adeta_max         =   1.9138393402100E+01
(PID.TID 0000.0001) %MON ad_dynstat_adeta_min         =  -2.2043855667114E+01
(PID.TID 0000.0001) %MON ad_dynstat_adeta_mean        =  -4.7562512985858E-01
(PID.TID 0000.0001) %MON ad_dynstat_adeta_sd          =   4.7437242582146E+00
(PID.TID 0000.0001) %MON ad_dynstat_adeta_del2        =   5.8721406077750E-02
(PID.TID 0000.0001) %MON ad_dynstat_aduvel_max        =   1.1342764875801E+01
(PID.TID 0000.0001) %MON ad_dynstat_aduvel_min        =  -1.1395601493684E+01
(PID.TID 0000.0001) %MON ad_dynstat_aduvel_mean       =  -6.0189355824486E-03
(PID.TID 0000.0001) %MON ad_dynstat_aduvel_sd         =   2.0501305394603E+00
(PID.TID 0000.0001) %MON ad_dynstat_aduvel_del2       =   2.0663774579512E-03
(PID.TID 0000.0001) %MON ad_dynstat_advvel_max        =   1.3082629986706E+01
(PID.TID 0000.0001) %MON ad_dynstat_advvel_min        =  -1.5176965326733E+01
(PID.TID 0000.0001) %MON ad_dynstat_advvel_mean       =  -2.1466575943400E-01
(PID.TID 0000.0001) %MON ad_dynstat_advvel_sd         =   1.9877599332020E+00
(PID.TID 0000.0001) %MON ad_dynstat_advvel_del2       =   2.0037041212531E-03
(PID.TID 0000.0001) %MON ad_dynstat_adwvel_max        =   5.6089533244490E+01
(PID.TID 0000.0001) %MON ad_dynstat_adwvel_min        =  -5.5276666948148E+01
(PID.TID 0000.0001) %MON ad_dynstat_adwvel_mean       =  -6.4575335907348E-03
(PID.TID 0000.0001) %MON ad_dynstat_adwvel_sd         =   4.3553761272761E-01
(PID.TID 0000.0001) %MON ad_dynstat_adwvel_del2       =   4.0418160234641E-03
(PID.TID 0000.0001) %MON ad_dynstat_adtheta_max       =   3.2009860319563E+01
(PID.TID 0000.0001) %MON ad_dynstat_adtheta_min       =  -3.4401545318305E+01
(PID.TID 0000.0001) %MON ad_dynstat_adtheta_mean      =  -4.5695883007646E-03
(PID.TID 0000.0001) %MON ad_dynstat_adtheta_sd        =   3.6738905626461E-01
(PID.TID 0000.0001) %MON ad_dynstat_adtheta_del2      =   2.1691863714651E-03
(PID.TID 0000.0001) %MON ad_dynstat_adsalt_max        =   1.1325180910331E+02
(PID.TID 0000.0001) %MON ad_dynstat_adsalt_min        =  -5.3217398715748E+00
(PID.TID 0000.0001) %MON ad_dynstat_adsalt_mean       =   3.1583823271522E-02
(PID.TID 0000.0001) %MON ad_dynstat_adsalt_sd         =   3.9305607594882E-01
(PID.TID 0000.0001) %MON ad_dynstat_adsalt_del2       =   8.3576913803983E-04
(PID.TID 0000.0001) // =======================================================
(PID.TID 0000.0001) // End AD_MONITOR dynamic field statistics
(PID.TID 0000.0001) // =======================================================
(PID.TID 0000.0001) // =======================================================
(PID.TID 0000.0001) // Begin AD_MONITOR SEAICE statistics
(PID.TID 0000.0001) // =======================================================
(PID.TID 0000.0001) %MON ad_seaice_tsnumber           =                     6
(PID.TID 0000.0001) %MON ad_seaice_time_sec           =   2.1600000000000E+04
(PID.TID 0000.0001) %MON ad_seaice_aduice_max         =   6.2237330644795E-02
(PID.TID 0000.0001) %MON ad_seaice_aduice_min         =  -5.7331954001379E-02
(PID.TID 0000.0001) %MON ad_seaice_aduice_mean        =   9.7928821489839E-05
(PID.TID 0000.0001) %MON ad_seaice_aduice_sd          =   3.5342656827721E-03
(PID.TID 0000.0001) %MON ad_seaice_aduice_del2        =   6.5300207023660E-05
(PID.TID 0000.0001) %MON ad_seaice_advice_max         =   9.0587728901345E-02
(PID.TID 0000.0001) %MON ad_seaice_advice_min         =  -7.0326037498826E-02
(PID.TID 0000.0001) %MON ad_seaice_advice_mean        =  -3.3269290217095E-05
(PID.TID 0000.0001) %MON ad_seaice_advice_sd          =   4.1518130001679E-03
(PID.TID 0000.0001) %MON ad_seaice_advice_del2        =   7.0870237942785E-05
(PID.TID 0000.0001) %MON ad_seaice_adarea_max         =   8.0378915894083E-02
(PID.TID 0000.0001) %MON ad_seaice_adarea_min         =  -7.1451095551669E-02
(PID.TID 0000.0001) %MON ad_seaice_adarea_mean        =   5.7357533449625E-06
(PID.TID 0000.0001) %MON ad_seaice_adarea_sd          =   5.0913172371214E-03
(PID.TID 0000.0001) %MON ad_seaice_adarea_del2        =   1.3911927948773E-04
(PID.TID 0000.0001) %MON ad_seaice_adheff_max         =   2.1559218914596E+02
(PID.TID 0000.0001) %MON ad_seaice_adheff_min         =  -2.3505985939261E+02
(PID.TID 0000.0001) %MON ad_seaice_adheff_mean        =  -6.4525856671618E+00
(PID.TID 0000.0001) %MON ad_seaice_adheff_sd          =   4.4146663539468E+01
(PID.TID 0000.0001) %MON ad_seaice_adheff_del2        =   6.0174848251335E-01
(PID.TID 0000.0001) %MON ad_seaice_adhsnow_max        =   7.8183218979481E+01
(PID.TID 0000.0001) %MON ad_seaice_adhsnow_min        =  -8.5242189980498E+01
(PID.TID 0000.0001) %MON ad_seaice_adhsnow_mean       =  -2.3474524594115E+00
(PID.TID 0000.0001) %MON ad_seaice_adhsnow_sd         =   1.6015608544014E+01
(PID.TID 0000.0001) %MON ad_seaice_adhsnow_del2       =   2.1879285584804E-01
(PID.TID 0000.0001) // =======================================================
(PID.TID 0000.0001) // End AD_MONITOR SEAICE statistics
(PID.TID 0000.0001) // =======================================================
 Calling cg2d from S/R CG2D_MAD
 cg2d: Sum(rhs),rhsMax =  -7.20257187225570E-15  7.18267427172082E-03
 Calling cg2d from S/R CG2D_MAD
 cg2d: Sum(rhs),rhsMax =  -7.99360577730113E-15  3.65368418840652E-03
(PID.TID 0000.0001) SOLVE_FOR_PRESSURE: putPmEinXvector =    F
 cg2d: Sum(rhs),rhsMax =   1.13674863689202E-01  6.80494402321960E+00
 cg2d: Sum(rhs),rhsMax =   1.86851253537588E-01  8.23075697484955E+00
 cg2d: Sum(rhs),rhsMax =   2.87992650799742E-01  7.97821468767062E+00
 cg2d: Sum(rhs),rhsMax =   3.94276103300474E-01  7.74858747615994E+00
 Calling cg2d from S/R CG2D_MAD
 cg2d: Sum(rhs),rhsMax =   3.55271367880050E-15  4.17414199128834E-03
(PID.TID 0000.0001) // =======================================================
(PID.TID 0000.0001) // Begin AD_MONITOR EXF statistics for iwhen =  3
(PID.TID 0000.0001) // =======================================================
(PID.TID 0000.0001) %MON ad_exf_tsnumber              =                     3
(PID.TID 0000.0001) %MON ad_exf_time_sec              =   1.0800000000000E+04
(PID.TID 0000.0001) %MON ad_exf_adfu_max              =   2.3103746475365E+00
(PID.TID 0000.0001) %MON ad_exf_adfu_min              =  -2.8264580223694E+00
(PID.TID 0000.0001) %MON ad_exf_adfu_mean             =   2.0220444511756E-02
(PID.TID 0000.0001) %MON ad_exf_adfu_sd               =   1.9722099812988E-01
(PID.TID 0000.0001) %MON ad_exf_adfu_del2             =   5.2825300907327E-03
(PID.TID 0000.0001) %MON ad_exf_adfv_max              =   2.7300827889170E+00
(PID.TID 0000.0001) %MON ad_exf_adfv_min              =  -2.9072078409125E+00
(PID.TID 0000.0001) %MON ad_exf_adfv_mean             =  -2.6332972025066E-02
(PID.TID 0000.0001) %MON ad_exf_adfv_sd               =   2.0018907911149E-01
(PID.TID 0000.0001) %MON ad_exf_adfv_del2             =   5.7388429984220E-03
(PID.TID 0000.0001) %MON ad_exf_adqnet_max            =   3.0393738970130E-03
(PID.TID 0000.0001) %MON ad_exf_adqnet_min            =  -3.2933733622022E-03
(PID.TID 0000.0001) %MON ad_exf_adqnet_mean           =  -4.6167081762205E-05
(PID.TID 0000.0001) %MON ad_exf_adqnet_sd             =   6.7459234437588E-04
(PID.TID 0000.0001) %MON ad_exf_adqnet_del2           =   8.8615165665889E-06
(PID.TID 0000.0001) %MON ad_exf_adempmr_max           =   1.5714508527757E+02
(PID.TID 0000.0001) %MON ad_exf_adempmr_min           =  -9.5830837285141E+01
(PID.TID 0000.0001) %MON ad_exf_adempmr_mean          =   2.8955919846182E+00
(PID.TID 0000.0001) %MON ad_exf_adempmr_sd            =   1.5423666214873E+01
(PID.TID 0000.0001) %MON ad_exf_adempmr_del2          =   1.4425858595067E-01
(PID.TID 0000.0001) %MON ad_exf_adqsw_max             =   7.5236626671584E-04
(PID.TID 0000.0001) %MON ad_exf_adqsw_min             =  -6.6463645007522E-04
(PID.TID 0000.0001) %MON ad_exf_adqsw_mean            =   1.1264528155578E-05
(PID.TID 0000.0001) %MON ad_exf_adqsw_sd              =   1.4118155869626E-04
(PID.TID 0000.0001) %MON ad_exf_adqsw_del2            =   2.0332263636604E-06
(PID.TID 0000.0001) // =======================================================
(PID.TID 0000.0001) // End AD_MONITOR EXF statistics for iwhen =  3
(PID.TID 0000.0001) // =======================================================
(PID.TID 0000.0001) // =======================================================
(PID.TID 0000.0001) // Begin AD_MONITOR dynamic field statistics
(PID.TID 0000.0001) // =======================================================
(PID.TID 0000.0001) %MON ad_time_tsnumber             =                     3
(PID.TID 0000.0001) %MON ad_time_secondsf             =   1.0800000000000E+04
(PID.TID 0000.0001) %MON ad_dynstat_adeta_max         =   2.0466220855713E+01
(PID.TID 0000.0001) %MON ad_dynstat_adeta_min         =  -2.0763603210449E+01
(PID.TID 0000.0001) %MON ad_dynstat_adeta_mean        =   1.9630689066896E-01
(PID.TID 0000.0001) %MON ad_dynstat_adeta_sd          =   4.6093142735935E+00
(PID.TID 0000.0001) %MON ad_dynstat_adeta_del2        =   5.6374308573786E-02
(PID.TID 0000.0001) %MON ad_dynstat_aduvel_max        =   2.4111863162346E+01
(PID.TID 0000.0001) %MON ad_dynstat_aduvel_min        =  -2.3833587247338E+01
(PID.TID 0000.0001) %MON ad_dynstat_aduvel_mean       =   4.4650680242879E-01
(PID.TID 0000.0001) %MON ad_dynstat_aduvel_sd         =   2.8717437368790E+00
(PID.TID 0000.0001) %MON ad_dynstat_aduvel_del2       =   2.9835598332739E-03
(PID.TID 0000.0001) %MON ad_dynstat_advvel_max        =   1.4624745665184E+01
(PID.TID 0000.0001) %MON ad_dynstat_advvel_min        =  -2.4837780598252E+01
(PID.TID 0000.0001) %MON ad_dynstat_advvel_mean       =  -5.9991491963332E-01
(PID.TID 0000.0001) %MON ad_dynstat_advvel_sd         =   2.6357710071522E+00
(PID.TID 0000.0001) %MON ad_dynstat_advvel_del2       =   2.9333828096404E-03
(PID.TID 0000.0001) %MON ad_dynstat_adwvel_max        =   9.8248671954988E+01
(PID.TID 0000.0001) %MON ad_dynstat_adwvel_min        =  -1.8119024976921E+02
(PID.TID 0000.0001) %MON ad_dynstat_adwvel_mean       =  -1.0101362172319E-02
(PID.TID 0000.0001) %MON ad_dynstat_adwvel_sd         =   6.2725051656532E-01
(PID.TID 0000.0001) %MON ad_dynstat_adwvel_del2       =   6.3925849275342E-03
(PID.TID 0000.0001) %MON ad_dynstat_adtheta_max       =   4.3380418403558E+01
(PID.TID 0000.0001) %MON ad_dynstat_adtheta_min       =  -4.2399987661105E+01
(PID.TID 0000.0001) %MON ad_dynstat_adtheta_mean      =  -2.0203593895898E-02
(PID.TID 0000.0001) %MON ad_dynstat_adtheta_sd        =   5.1175335774345E-01
(PID.TID 0000.0001) %MON ad_dynstat_adtheta_del2      =   3.0367821925472E-03
(PID.TID 0000.0001) %MON ad_dynstat_adsalt_max        =   6.6664328574963E+01
(PID.TID 0000.0001) %MON ad_dynstat_adsalt_min        =  -4.9206528219909E+00
(PID.TID 0000.0001) %MON ad_dynstat_adsalt_mean       =   1.2074441751050E-01
(PID.TID 0000.0001) %MON ad_dynstat_adsalt_sd         =   8.5992461360163E-01
(PID.TID 0000.0001) %MON ad_dynstat_adsalt_del2       =   2.0275618803736E-03
(PID.TID 0000.0001) // =======================================================
(PID.TID 0000.0001) // End AD_MONITOR dynamic field statistics
(PID.TID 0000.0001) // =======================================================
(PID.TID 0000.0001) // =======================================================
(PID.TID 0000.0001) // Begin AD_MONITOR SEAICE statistics
(PID.TID 0000.0001) // =======================================================
(PID.TID 0000.0001) %MON ad_seaice_tsnumber           =                     3
(PID.TID 0000.0001) %MON ad_seaice_time_sec           =   1.0800000000000E+04
(PID.TID 0000.0001) %MON ad_seaice_aduice_max         =   4.1741116020898E-01
(PID.TID 0000.0001) %MON ad_seaice_aduice_min         =  -2.2155758449553E-01
(PID.TID 0000.0001) %MON ad_seaice_aduice_mean        =   5.4531772051721E-04
(PID.TID 0000.0001) %MON ad_seaice_aduice_sd          =   1.5198725882708E-02
(PID.TID 0000.0001) %MON ad_seaice_aduice_del2        =   2.9193239134568E-04
(PID.TID 0000.0001) %MON ad_seaice_advice_max         =   4.0299192314778E-01
(PID.TID 0000.0001) %MON ad_seaice_advice_min         =  -2.7471781261002E-01
(PID.TID 0000.0001) %MON ad_seaice_advice_mean        =  -1.1528192530689E-04
(PID.TID 0000.0001) %MON ad_seaice_advice_sd          =   1.5799504882585E-02
(PID.TID 0000.0001) %MON ad_seaice_advice_del2        =   2.2194924114186E-04
(PID.TID 0000.0001) %MON ad_seaice_adarea_max         =   3.4306487302569E-01
(PID.TID 0000.0001) %MON ad_seaice_adarea_min         =  -1.3613590374729E-01
(PID.TID 0000.0001) %MON ad_seaice_adarea_mean        =   9.4948470220141E-04
(PID.TID 0000.0001) %MON ad_seaice_adarea_sd          =   1.4494814210112E-02
(PID.TID 0000.0001) %MON ad_seaice_adarea_del2        =   3.5504922874008E-04
(PID.TID 0000.0001) %MON ad_seaice_adheff_max         =   3.4089567405067E+02
(PID.TID 0000.0001) %MON ad_seaice_adheff_min         =  -3.7137634005129E+02
(PID.TID 0000.0001) %MON ad_seaice_adheff_mean        =  -5.6949633177278E+00
(PID.TID 0000.0001) %MON ad_seaice_adheff_sd          =   7.0005837796522E+01
(PID.TID 0000.0001) %MON ad_seaice_adheff_del2        =   9.2012221401668E-01
(PID.TID 0000.0001) %MON ad_seaice_adhsnow_max        =   1.2363815883305E+02
(PID.TID 0000.0001) %MON ad_seaice_adhsnow_min        =  -1.3468124935087E+02
(PID.TID 0000.0001) %MON ad_seaice_adhsnow_mean       =  -2.0713627467584E+00
(PID.TID 0000.0001) %MON ad_seaice_adhsnow_sd         =   2.5386075939614E+01
(PID.TID 0000.0001) %MON ad_seaice_adhsnow_del2       =   3.3366444524682E-01
(PID.TID 0000.0001) // =======================================================
(PID.TID 0000.0001) // End AD_MONITOR SEAICE statistics
(PID.TID 0000.0001) // =======================================================
 Calling cg2d from S/R CG2D_MAD
 cg2d: Sum(rhs),rhsMax =   8.04911692853238E-16  4.27053409103838E-03
 Calling cg2d from S/R CG2D_MAD
 cg2d: Sum(rhs),rhsMax =   3.60822483003176E-16  5.79944903126073E-03
 Calling cg2d from S/R CG2D_MAD
 cg2d: Sum(rhs),rhsMax =   2.88657986402541E-15  4.44099757422374E-03
(PID.TID 0000.0001) // =======================================================
(PID.TID 0000.0001) // Begin AD_MONITOR EXF statistics for iwhen =  3
(PID.TID 0000.0001) // =======================================================
(PID.TID 0000.0001) %MON ad_exf_tsnumber              =                     0
(PID.TID 0000.0001) %MON ad_exf_time_sec              =   0.0000000000000E+00
(PID.TID 0000.0001) %MON ad_exf_adfu_max              =   3.7855435402916E+00
(PID.TID 0000.0001) %MON ad_exf_adfu_min              =  -2.3594792859110E+00
(PID.TID 0000.0001) %MON ad_exf_adfu_mean             =   1.9983927651073E-02
(PID.TID 0000.0001) %MON ad_exf_adfu_sd               =   2.7800994814571E-01
(PID.TID 0000.0001) %MON ad_exf_adfu_del2             =   7.1549607360046E-03
(PID.TID 0000.0001) %MON ad_exf_adfv_max              =   2.5237592802036E+00
(PID.TID 0000.0001) %MON ad_exf_adfv_min              =  -3.0449043114004E+00
(PID.TID 0000.0001) %MON ad_exf_adfv_mean             =  -2.8832968272140E-02
(PID.TID 0000.0001) %MON ad_exf_adfv_sd               =   2.6410548781658E-01
(PID.TID 0000.0001) %MON ad_exf_adfv_del2             =   7.5364533589851E-03
(PID.TID 0000.0001) %MON ad_exf_adqnet_max            =   4.5956055544770E-03
(PID.TID 0000.0001) %MON ad_exf_adqnet_min            =  -4.4091441397908E-03
(PID.TID 0000.0001) %MON ad_exf_adqnet_mean           =  -5.6140860920988E-05
(PID.TID 0000.0001) %MON ad_exf_adqnet_sd             =   8.7478166085565E-04
(PID.TID 0000.0001) %MON ad_exf_adqnet_del2           =   1.1419835660370E-05
(PID.TID 0000.0001) %MON ad_exf_adempmr_max           =   1.5363179083266E+02
(PID.TID 0000.0001) %MON ad_exf_adempmr_min           =  -1.5397120414514E+02
(PID.TID 0000.0001) %MON ad_exf_adempmr_mean          =   3.8008985851180E+00
(PID.TID 0000.0001) %MON ad_exf_adempmr_sd            =   1.8359272202370E+01
(PID.TID 0000.0001) %MON ad_exf_adempmr_del2          =   1.5422703667654E-01
(PID.TID 0000.0001) %MON ad_exf_adqsw_max             =   1.0052948278543E-03
(PID.TID 0000.0001) %MON ad_exf_adqsw_min             =  -1.0513317905868E-03
(PID.TID 0000.0001) %MON ad_exf_adqsw_mean            =   1.3140003084039E-05
(PID.TID 0000.0001) %MON ad_exf_adqsw_sd              =   1.8458700248351E-04
(PID.TID 0000.0001) %MON ad_exf_adqsw_del2            =   2.6972406238759E-06
(PID.TID 0000.0001) // =======================================================
(PID.TID 0000.0001) // End AD_MONITOR EXF statistics for iwhen =  3
(PID.TID 0000.0001) // =======================================================
(PID.TID 0000.0001) Start initial hydrostatic pressure computation
(PID.TID 0000.0001) Pressure is predetermined for buoyancyRelation OCEANIC
(PID.TID 0000.0001) 
(PID.TID 0000.0001) // =======================================================
(PID.TID 0000.0001) // Begin AD_MONITOR dynamic field statistics
(PID.TID 0000.0001) // =======================================================
(PID.TID 0000.0001) %MON ad_time_tsnumber             =                     0
(PID.TID 0000.0001) %MON ad_time_secondsf             =   0.0000000000000E+00
(PID.TID 0000.0001) %MON ad_dynstat_adeta_max         =   0.0000000000000E+00
(PID.TID 0000.0001) %MON ad_dynstat_adeta_min         =   0.0000000000000E+00
(PID.TID 0000.0001) %MON ad_dynstat_adeta_mean        =   0.0000000000000E+00
(PID.TID 0000.0001) %MON ad_dynstat_adeta_sd          =   0.0000000000000E+00
(PID.TID 0000.0001) %MON ad_dynstat_adeta_del2        =   0.0000000000000E+00
(PID.TID 0000.0001) %MON ad_dynstat_aduvel_max        =   2.9814707978011E+01
(PID.TID 0000.0001) %MON ad_dynstat_aduvel_min        =  -3.1280262817068E+01
(PID.TID 0000.0001) %MON ad_dynstat_aduvel_mean       =   3.2649285227676E-01
(PID.TID 0000.0001) %MON ad_dynstat_aduvel_sd         =   3.2819883825598E+00
(PID.TID 0000.0001) %MON ad_dynstat_aduvel_del2       =   3.4650437871660E-03
(PID.TID 0000.0001) %MON ad_dynstat_advvel_max        =   2.3448873752719E+01
(PID.TID 0000.0001) %MON ad_dynstat_advvel_min        =  -3.4026394427031E+01
(PID.TID 0000.0001) %MON ad_dynstat_advvel_mean       =  -5.4040245492044E-01
(PID.TID 0000.0001) %MON ad_dynstat_advvel_sd         =   3.3904220903438E+00
(PID.TID 0000.0001) %MON ad_dynstat_advvel_del2       =   3.6342659593478E-03
(PID.TID 0000.0001) %MON ad_dynstat_adwvel_max        =   0.0000000000000E+00
(PID.TID 0000.0001) %MON ad_dynstat_adwvel_min        =   0.0000000000000E+00
(PID.TID 0000.0001) %MON ad_dynstat_adwvel_mean       =   0.0000000000000E+00
(PID.TID 0000.0001) %MON ad_dynstat_adwvel_sd         =   0.0000000000000E+00
(PID.TID 0000.0001) %MON ad_dynstat_adwvel_del2       =   0.0000000000000E+00
(PID.TID 0000.0001) %MON ad_dynstat_adtheta_max       =   5.0955078490147E+01
(PID.TID 0000.0001) %MON ad_dynstat_adtheta_min       =  -6.4242517172783E+01
(PID.TID 0000.0001) %MON ad_dynstat_adtheta_mean      =  -2.4550664551860E-02
(PID.TID 0000.0001) %MON ad_dynstat_adtheta_sd        =   6.4368698051295E-01
(PID.TID 0000.0001) %MON ad_dynstat_adtheta_del2      =   3.8700858060010E-03
(PID.TID 0000.0001) %MON ad_dynstat_adsalt_max        =   7.0169554383020E+01
(PID.TID 0000.0001) %MON ad_dynstat_adsalt_min        =  -8.4861128796401E+00
(PID.TID 0000.0001) %MON ad_dynstat_adsalt_mean       =   1.5867422157369E-01
(PID.TID 0000.0001) %MON ad_dynstat_adsalt_sd         =   1.3391543630407E+00
(PID.TID 0000.0001) %MON ad_dynstat_adsalt_del2       =   2.6756320589923E-03
(PID.TID 0000.0001) // =======================================================
(PID.TID 0000.0001) // End AD_MONITOR dynamic field statistics
(PID.TID 0000.0001) // =======================================================
(PID.TID 0000.0001) // =======================================================
(PID.TID 0000.0001) // Begin AD_MONITOR SEAICE statistics
(PID.TID 0000.0001) // =======================================================
(PID.TID 0000.0001) %MON ad_seaice_tsnumber           =                     0
(PID.TID 0000.0001) %MON ad_seaice_time_sec           =   0.0000000000000E+00
(PID.TID 0000.0001) %MON ad_seaice_aduice_max         =   6.8133786762970E-01
(PID.TID 0000.0001) %MON ad_seaice_aduice_min         =  -3.1829291619234E-01
(PID.TID 0000.0001) %MON ad_seaice_aduice_mean        =   9.0953857336549E-04
(PID.TID 0000.0001) %MON ad_seaice_aduice_sd          =   2.2608662005103E-02
(PID.TID 0000.0001) %MON ad_seaice_aduice_del2        =   4.1069734675302E-04
(PID.TID 0000.0001) %MON ad_seaice_advice_max         =   5.5890407620056E-01
(PID.TID 0000.0001) %MON ad_seaice_advice_min         =  -3.5618406633246E-01
(PID.TID 0000.0001) %MON ad_seaice_advice_mean        =  -2.9591900913329E-05
(PID.TID 0000.0001) %MON ad_seaice_advice_sd          =   2.1006181750318E-02
(PID.TID 0000.0001) %MON ad_seaice_advice_del2        =   2.9937130331444E-04
(PID.TID 0000.0001) %MON ad_seaice_adarea_max         =   2.1713742643341E-01
(PID.TID 0000.0001) %MON ad_seaice_adarea_min         =  -1.3354047294240E-01
(PID.TID 0000.0001) %MON ad_seaice_adarea_mean        =   5.6376937286526E-04
(PID.TID 0000.0001) %MON ad_seaice_adarea_sd          =   1.3713082445734E-02
(PID.TID 0000.0001) %MON ad_seaice_adarea_del2        =   3.2627521698398E-04
(PID.TID 0000.0001) %MON ad_seaice_adheff_max         =   4.9825362978077E+02
(PID.TID 0000.0001) %MON ad_seaice_adheff_min         =  -3.7085032335274E+02
(PID.TID 0000.0001) %MON ad_seaice_adheff_mean        =  -7.3830074554416E+00
(PID.TID 0000.0001) %MON ad_seaice_adheff_sd          =   8.9981883359391E+01
(PID.TID 0000.0001) %MON ad_seaice_adheff_del2        =   1.1722155693074E+00
(PID.TID 0000.0001) %MON ad_seaice_adhsnow_max        =   1.8073109458745E+02
(PID.TID 0000.0001) %MON ad_seaice_adhsnow_min        =  -1.3459074923193E+02
(PID.TID 0000.0001) %MON ad_seaice_adhsnow_mean       =  -2.6826136299348E+00
(PID.TID 0000.0001) %MON ad_seaice_adhsnow_sd         =   3.2631562331555E+01
(PID.TID 0000.0001) %MON ad_seaice_adhsnow_del2       =   4.2507344283239E-01
(PID.TID 0000.0001) // =======================================================
(PID.TID 0000.0001) // End AD_MONITOR SEAICE statistics
(PID.TID 0000.0001) // =======================================================
 ph-pack: packing ecco_cost
 ph-pack: packing ecco_ctrl
(PID.TID 0000.0001) // =======================================================
(PID.TID 0000.0001) // Gradient-check starts (grdchk_main)
(PID.TID 0000.0001) // =======================================================
(PID.TID 0000.0001) grdchk reference fc: fcref       =  3.31894343817657E+04
grad-res -------------------------------
 grad-res  proc    #    i    j    k   bi   bj iobc       fc ref            fc + eps           fc - eps
 grad-res  proc    #    i    j    k   bi   bj iobc      adj grad            fd grad          1 - fd/adj
(PID.TID 0000.0001) ====== Starts gradient-check number   1 (=ichknum) =======
 ph-test icomp, ncvarcomp, ichknum            1         594           1
 ph-grd _loc: bi, bj, icomptest, ichknum            1           1           0           1
 ph-grd -->hit<--            1           1           1           1
(PID.TID 0000.0001) grdchk pos: i,j,k=    1    1    1 ; bi,bj=   1   1 ; iobc=  1 ; rec=   1
(PID.TID 0000.0001) Start initial hydrostatic pressure computation
(PID.TID 0000.0001) Pressure is predetermined for buoyancyRelation OCEANIC
(PID.TID 0000.0001) 
(PID.TID 0000.0001) // =======================================================
(PID.TID 0000.0001) // Model current state
(PID.TID 0000.0001) // =======================================================
(PID.TID 0000.0001) 
(PID.TID 0000.0001) SOLVE_FOR_PRESSURE: putPmEinXvector =    F
 cg2d: Sum(rhs),rhsMax =   1.13674863689274E-01  6.80494402321544E+00
 cg2d: Sum(rhs),rhsMax =   1.86851253537750E-01  8.23075697484161E+00
 cg2d: Sum(rhs),rhsMax =   2.87992650800128E-01  7.97821468765922E+00
 cg2d: Sum(rhs),rhsMax =   3.94276103301181E-01  7.74858747614565E+00
 cg2d: Sum(rhs),rhsMax =   4.95270753312099E-01  7.65934820673534E+00
 cg2d: Sum(rhs),rhsMax =   5.92660207483988E-01  7.61970515875245E+00
 cg2d: Sum(rhs),rhsMax =   6.88070042801296E-01  7.59584828992048E+00
 cg2d: Sum(rhs),rhsMax =   7.82661243682657E-01  7.57582533113800E+00
(PID.TID 0000.0001) Did not write pickup because writePickupAtEnd = FALSE
(PID.TID 0000.0001) 
(PID.TID 0000.0001) == profiles_cost: begin ==
(PID.TID 0000.0001)  profiles_cost( 1, 1) =  0.134973461356606D+04 0.185786000000000D+06
(PID.TID 0000.0001)  profiles_cost( 1, 2) =  0.229260391963641D+05 0.185786000000000D+06
(PID.TID 0000.0001) == profiles_cost: end   ==
(PID.TID 0000.0001) 
(PID.TID 0000.0001)  --> f_profiles = 0.134973461356606D+04 1 1
(PID.TID 0000.0001)  --> f_profiles = 0.229260391963641D+05 1 2
(PID.TID 0000.0001)  --> f_gencost = 0.442644037167145D+04 1
(PID.TID 0000.0001)  --> f_gencost = 0.448722092536889D+04 2
(PID.TID 0000.0001)  --> f_gentim2d = 0.999999955296517D-04 1
(PID.TID 0000.0001)  --> f_gentim2d = 0.000000000000000D+00 2
(PID.TID 0000.0001)  --> f_gentim2d = 0.000000000000000D+00 3
(PID.TID 0000.0001)  --> f_genarr3d = 0.000000000000000D+00 1
(PID.TID 0000.0001)  --> f_genarr3d = 0.000000000000000D+00 2
(PID.TID 0000.0001)  --> f_genarr3d = 0.000000000000000D+00 3
(PID.TID 0000.0001)  --> fc               = 0.331894351069705D+05
(PID.TID 0000.0001) Not writing cost function info to costfunction0000
(PID.TID 0000.0001)   early fc =  0.000000000000000D+00
(PID.TID 0000.0001)   local fc =  0.142473274856484D+04
(PID.TID 0000.0001)  global fc =  0.331894351069705D+05
(PID.TID 0000.0001) grdchk perturb(+)fc: fcpertplus  =  3.31894351069705E+04
(PID.TID 0000.0001) Start initial hydrostatic pressure computation
(PID.TID 0000.0001) Pressure is predetermined for buoyancyRelation OCEANIC
(PID.TID 0000.0001) 
(PID.TID 0000.0001) // =======================================================
(PID.TID 0000.0001) // Model current state
(PID.TID 0000.0001) // =======================================================
(PID.TID 0000.0001) 
(PID.TID 0000.0001) SOLVE_FOR_PRESSURE: putPmEinXvector =    F
 cg2d: Sum(rhs),rhsMax =   1.13674863689136E-01  6.80494402322376E+00
 cg2d: Sum(rhs),rhsMax =   1.86851253537402E-01  8.23075697485752E+00
 cg2d: Sum(rhs),rhsMax =   2.87992650799293E-01  7.97821468768214E+00
 cg2d: Sum(rhs),rhsMax =   3.94276103299688E-01  7.74858747617459E+00
 cg2d: Sum(rhs),rhsMax =   4.95270753309988E-01  7.65934820676950E+00
 cg2d: Sum(rhs),rhsMax =   5.92660207481092E-01  7.61970515879129E+00
 cg2d: Sum(rhs),rhsMax =   6.88070042797769E-01  7.59584828996342E+00
 cg2d: Sum(rhs),rhsMax =   7.82661243678739E-01  7.57582533118378E+00
(PID.TID 0000.0001) Did not write pickup because writePickupAtEnd = FALSE
(PID.TID 0000.0001) 
(PID.TID 0000.0001) == profiles_cost: begin ==
(PID.TID 0000.0001)  profiles_cost( 1, 1) =  0.134973460593566D+04 0.185786000000000D+06
(PID.TID 0000.0001)  profiles_cost( 1, 2) =  0.229260391970101D+05 0.185786000000000D+06
(PID.TID 0000.0001) == profiles_cost: end   ==
(PID.TID 0000.0001) 
(PID.TID 0000.0001)  --> f_profiles = 0.134973460593566D+04 1 1
(PID.TID 0000.0001)  --> f_profiles = 0.229260391970101D+05 1 2
(PID.TID 0000.0001)  --> f_gencost = 0.442644039576992D+04 1
(PID.TID 0000.0001)  --> f_gencost = 0.448721952150827D+04 2
(PID.TID 0000.0001)  --> f_gentim2d = 0.999999955296517D-04 1
(PID.TID 0000.0001)  --> f_gentim2d = 0.000000000000000D+00 2
(PID.TID 0000.0001)  --> f_gentim2d = 0.000000000000000D+00 3
(PID.TID 0000.0001)  --> f_genarr3d = 0.000000000000000D+00 1
(PID.TID 0000.0001)  --> f_genarr3d = 0.000000000000000D+00 2
(PID.TID 0000.0001)  --> f_genarr3d = 0.000000000000000D+00 3
(PID.TID 0000.0001)  --> fc               = 0.331894337202240D+05
(PID.TID 0000.0001) Not writing cost function info to costfunction0000
(PID.TID 0000.0001)   early fc =  0.000000000000000D+00
(PID.TID 0000.0001)   local fc =  0.142473158672573D+04
(PID.TID 0000.0001)  global fc =  0.331894337202240D+05
(PID.TID 0000.0001) grdchk perturb(-)fc: fcpertminus =  3.31894337202240E+04
grad-res -------------------------------
 grad-res     0    1    1    1    1    1    1    1   3.31894343818E+04  3.31894351070E+04  3.31894337202E+04
 grad-res     0    1    1    1    0    1    1    1   5.09827286005E-02  6.93373236572E-02 -3.60015941880E-01
(PID.TID 0000.0001)  ADM  ref_cost_function      =  3.31894343817657E+04
(PID.TID 0000.0001)  ADM  adjoint_gradient       =  5.09827286005020E-02
(PID.TID 0000.0001)  ADM  finite-diff_grad       =  6.93373236572370E-02
(PID.TID 0000.0001) ====== End of gradient-check number   1 (ierr=  0) =======
(PID.TID 0000.0001) ====== Starts gradient-check number   2 (=ichknum) =======
 ph-test icomp, ncvarcomp, ichknum            2         594           2
 ph-grd _loc: bi, bj, icomptest, ichknum            1           1           1           2
 ph-grd -->hit<--            2           1           1           1
(PID.TID 0000.0001) grdchk pos: i,j,k=    2    1    1 ; bi,bj=   1   1 ; iobc=  1 ; rec=   1
(PID.TID 0000.0001) Start initial hydrostatic pressure computation
(PID.TID 0000.0001) Pressure is predetermined for buoyancyRelation OCEANIC
(PID.TID 0000.0001) 
(PID.TID 0000.0001) // =======================================================
(PID.TID 0000.0001) // Model current state
(PID.TID 0000.0001) // =======================================================
(PID.TID 0000.0001) 
(PID.TID 0000.0001) SOLVE_FOR_PRESSURE: putPmEinXvector =    F
 cg2d: Sum(rhs),rhsMax =   1.13674863689302E-01  6.80494402321359E+00
 cg2d: Sum(rhs),rhsMax =   1.86851253537837E-01  8.23075697483809E+00
 cg2d: Sum(rhs),rhsMax =   2.87992650800351E-01  7.97821468765414E+00
 cg2d: Sum(rhs),rhsMax =   3.94276103301557E-01  7.74858747613875E+00
 cg2d: Sum(rhs),rhsMax =   4.95270753312621E-01  7.65934820672700E+00
 cg2d: Sum(rhs),rhsMax =   5.92660207484663E-01  7.61970515874314E+00
 cg2d: Sum(rhs),rhsMax =   6.88070042802163E-01  7.59584828991020E+00
 cg2d: Sum(rhs),rhsMax =   7.82661243683631E-01  7.57582533112685E+00
(PID.TID 0000.0001) Did not write pickup because writePickupAtEnd = FALSE
(PID.TID 0000.0001) 
(PID.TID 0000.0001) == profiles_cost: begin ==
(PID.TID 0000.0001)  profiles_cost( 1, 1) =  0.134973461477186D+04 0.185786000000000D+06
(PID.TID 0000.0001)  profiles_cost( 1, 2) =  0.229260391966838D+05 0.185786000000000D+06
(PID.TID 0000.0001) == profiles_cost: end   ==
(PID.TID 0000.0001) 
(PID.TID 0000.0001)  --> f_profiles = 0.134973461477186D+04 1 1
(PID.TID 0000.0001)  --> f_profiles = 0.229260391966838D+05 1 2
(PID.TID 0000.0001)  --> f_gencost = 0.442644036735596D+04 1
(PID.TID 0000.0001)  --> f_gencost = 0.448722083271941D+04 2
(PID.TID 0000.0001)  --> f_gentim2d = 0.999999955296517D-04 1
(PID.TID 0000.0001)  --> f_gentim2d = 0.000000000000000D+00 2
(PID.TID 0000.0001)  --> f_gentim2d = 0.000000000000000D+00 3
(PID.TID 0000.0001)  --> f_genarr3d = 0.000000000000000D+00 1
(PID.TID 0000.0001)  --> f_genarr3d = 0.000000000000000D+00 2
(PID.TID 0000.0001)  --> f_genarr3d = 0.000000000000000D+00 3
(PID.TID 0000.0001)  --> fc               = 0.331894350115311D+05
(PID.TID 0000.0001) Not writing cost function info to costfunction0000
(PID.TID 0000.0001)   early fc =  0.000000000000000D+00
(PID.TID 0000.0001)   local fc =  0.142473285494048D+04
(PID.TID 0000.0001)  global fc =  0.331894350115311D+05
(PID.TID 0000.0001) grdchk perturb(+)fc: fcpertplus  =  3.31894350115311E+04
(PID.TID 0000.0001) Start initial hydrostatic pressure computation
(PID.TID 0000.0001) Pressure is predetermined for buoyancyRelation OCEANIC
(PID.TID 0000.0001) 
(PID.TID 0000.0001) // =======================================================
(PID.TID 0000.0001) // Model current state
(PID.TID 0000.0001) // =======================================================
(PID.TID 0000.0001) 
(PID.TID 0000.0001) SOLVE_FOR_PRESSURE: putPmEinXvector =    F
 cg2d: Sum(rhs),rhsMax =   1.13674863689107E-01  6.80494402322561E+00
 cg2d: Sum(rhs),rhsMax =   1.86851253537318E-01  8.23075697486113E+00
 cg2d: Sum(rhs),rhsMax =   2.87992650799099E-01  7.97821468768740E+00
 cg2d: Sum(rhs),rhsMax =   3.94276103299305E-01  7.74858747618163E+00
 cg2d: Sum(rhs),rhsMax =   4.95270753309459E-01  7.65934820677783E+00
 cg2d: Sum(rhs),rhsMax =   5.92660207480353E-01  7.61970515880055E+00
 cg2d: Sum(rhs),rhsMax =   6.88070042796905E-01  7.59584828997387E+00
 cg2d: Sum(rhs),rhsMax =   7.82661243677666E-01  7.57582533119499E+00
(PID.TID 0000.0001) Did not write pickup because writePickupAtEnd = FALSE
(PID.TID 0000.0001) 
(PID.TID 0000.0001) == profiles_cost: begin ==
(PID.TID 0000.0001)  profiles_cost( 1, 1) =  0.134973460473044D+04 0.185786000000000D+06
(PID.TID 0000.0001)  profiles_cost( 1, 2) =  0.229260391966904D+05 0.185786000000000D+06
(PID.TID 0000.0001) == profiles_cost: end   ==
(PID.TID 0000.0001) 
(PID.TID 0000.0001)  --> f_profiles = 0.134973460473044D+04 1 1
(PID.TID 0000.0001)  --> f_profiles = 0.229260391966904D+05 1 2
(PID.TID 0000.0001)  --> f_gencost = 0.442644040423286D+04 1
(PID.TID 0000.0001)  --> f_gencost = 0.448721949865185D+04 2
(PID.TID 0000.0001)  --> f_gentim2d = 0.999999955296517D-04 1
(PID.TID 0000.0001)  --> f_gentim2d = 0.000000000000000D+00 2
(PID.TID 0000.0001)  --> f_gentim2d = 0.000000000000000D+00 3
(PID.TID 0000.0001)  --> f_genarr3d = 0.000000000000000D+00 1
(PID.TID 0000.0001)  --> f_genarr3d = 0.000000000000000D+00 2
(PID.TID 0000.0001)  --> f_genarr3d = 0.000000000000000D+00 3
(PID.TID 0000.0001)  --> fc               = 0.331894337043056D+05
(PID.TID 0000.0001) Not writing cost function info to costfunction0000
(PID.TID 0000.0001)   early fc =  0.000000000000000D+00
(PID.TID 0000.0001)   local fc =  0.142473143170988D+04
(PID.TID 0000.0001)  global fc =  0.331894337043056D+05
(PID.TID 0000.0001) grdchk perturb(-)fc: fcpertminus =  3.31894337043056E+04
grad-res -------------------------------
 grad-res     0    2    2    1    1    1    1    1   3.31894343818E+04  3.31894350115E+04  3.31894337043E+04
 grad-res     0    2    2    2    0    1    1    1   4.96749877930E-02  6.53612747556E-02 -3.15778375789E-01
(PID.TID 0000.0001)  ADM  ref_cost_function      =  3.31894343817657E+04
(PID.TID 0000.0001)  ADM  adjoint_gradient       =  4.96749877929688E-02
(PID.TID 0000.0001)  ADM  finite-diff_grad       =  6.53612747555599E-02
(PID.TID 0000.0001) ====== End of gradient-check number   2 (ierr=  0) =======
(PID.TID 0000.0001) ====== Starts gradient-check number   3 (=ichknum) =======
 ph-test icomp, ncvarcomp, ichknum            3         594           3
 ph-grd _loc: bi, bj, icomptest, ichknum            1           1           2           3
 ph-grd -->hit<--            3           1           1           1
(PID.TID 0000.0001) grdchk pos: i,j,k=    3    1    1 ; bi,bj=   1   1 ; iobc=  1 ; rec=   1
(PID.TID 0000.0001) Start initial hydrostatic pressure computation
(PID.TID 0000.0001) Pressure is predetermined for buoyancyRelation OCEANIC
(PID.TID 0000.0001) 
(PID.TID 0000.0001) // =======================================================
(PID.TID 0000.0001) // Model current state
(PID.TID 0000.0001) // =======================================================
(PID.TID 0000.0001) 
(PID.TID 0000.0001) SOLVE_FOR_PRESSURE: putPmEinXvector =    F
 cg2d: Sum(rhs),rhsMax =   1.13674863689321E-01  6.80494402321269E+00
 cg2d: Sum(rhs),rhsMax =   1.86851253537874E-01  8.23075697483626E+00
 cg2d: Sum(rhs),rhsMax =   2.87992650800442E-01  7.97821468765121E+00
 cg2d: Sum(rhs),rhsMax =   3.94276103301735E-01  7.74858747613507E+00
 cg2d: Sum(rhs),rhsMax =   4.95270753312870E-01  7.65934820672279E+00
 cg2d: Sum(rhs),rhsMax =   5.92660207485068E-01  7.61970515873797E+00
 cg2d: Sum(rhs),rhsMax =   6.88070042802590E-01  7.59584828990426E+00
 cg2d: Sum(rhs),rhsMax =   7.82661243684217E-01  7.57582533112054E+00
(PID.TID 0000.0001) Did not write pickup because writePickupAtEnd = FALSE
(PID.TID 0000.0001) 
(PID.TID 0000.0001) == profiles_cost: begin ==
(PID.TID 0000.0001)  profiles_cost( 1, 1) =  0.134973461501911D+04 0.185786000000000D+06
(PID.TID 0000.0001)  profiles_cost( 1, 2) =  0.229260391968475D+05 0.185786000000000D+06
(PID.TID 0000.0001) == profiles_cost: end   ==
(PID.TID 0000.0001) 
(PID.TID 0000.0001)  --> f_profiles = 0.134973461501911D+04 1 1
(PID.TID 0000.0001)  --> f_profiles = 0.229260391968475D+05 1 2
(PID.TID 0000.0001)  --> f_gencost = 0.442644035348534D+04 1
(PID.TID 0000.0001)  --> f_gencost = 0.448722054827089D+04 2
(PID.TID 0000.0001)  --> f_gentim2d = 0.999999955296517D-04 1
(PID.TID 0000.0001)  --> f_gentim2d = 0.000000000000000D+00 2
(PID.TID 0000.0001)  --> f_gentim2d = 0.000000000000000D+00 3
(PID.TID 0000.0001)  --> f_genarr3d = 0.000000000000000D+00 1
(PID.TID 0000.0001)  --> f_genarr3d = 0.000000000000000D+00 2
(PID.TID 0000.0001)  --> f_genarr3d = 0.000000000000000D+00 3
(PID.TID 0000.0001)  --> fc               = 0.331894347136228D+05
(PID.TID 0000.0001) Not writing cost function info to costfunction0000
(PID.TID 0000.0001)   early fc =  0.000000000000000D+00
(PID.TID 0000.0001)   local fc =  0.142473274404412D+04
(PID.TID 0000.0001)  global fc =  0.331894347136228D+05
(PID.TID 0000.0001) grdchk perturb(+)fc: fcpertplus  =  3.31894347136228E+04
(PID.TID 0000.0001) Start initial hydrostatic pressure computation
(PID.TID 0000.0001) Pressure is predetermined for buoyancyRelation OCEANIC
(PID.TID 0000.0001) 
(PID.TID 0000.0001) // =======================================================
(PID.TID 0000.0001) // Model current state
(PID.TID 0000.0001) // =======================================================
(PID.TID 0000.0001) 
(PID.TID 0000.0001) SOLVE_FOR_PRESSURE: putPmEinXvector =    F
 cg2d: Sum(rhs),rhsMax =   1.13674863689084E-01  6.80494402322651E+00
 cg2d: Sum(rhs),rhsMax =   1.86851253537270E-01  8.23075697486299E+00
 cg2d: Sum(rhs),rhsMax =   2.87992650798966E-01  7.97821468769039E+00
 cg2d: Sum(rhs),rhsMax =   3.94276103299138E-01  7.74858747618519E+00
 cg2d: Sum(rhs),rhsMax =   4.95270753309200E-01  7.65934820678222E+00
 cg2d: Sum(rhs),rhsMax =   5.92660207480062E-01  7.61970515880569E+00
 cg2d: Sum(rhs),rhsMax =   6.88070042796419E-01  7.59584828997955E+00
 cg2d: Sum(rhs),rhsMax =   7.82661243677154E-01  7.57582533120111E+00
(PID.TID 0000.0001) Did not write pickup because writePickupAtEnd = FALSE
(PID.TID 0000.0001) 
(PID.TID 0000.0001) == profiles_cost: begin ==
(PID.TID 0000.0001)  profiles_cost( 1, 1) =  0.134973460448319D+04 0.185786000000000D+06
(PID.TID 0000.0001)  profiles_cost( 1, 2) =  0.229260391965265D+05 0.185786000000000D+06
(PID.TID 0000.0001) == profiles_cost: end   ==
(PID.TID 0000.0001) 
(PID.TID 0000.0001)  --> f_profiles = 0.134973460448319D+04 1 1
(PID.TID 0000.0001)  --> f_profiles = 0.229260391965265D+05 1 2
(PID.TID 0000.0001)  --> f_gencost = 0.442644041440551D+04 1
(PID.TID 0000.0001)  --> f_gencost = 0.448721984345466D+04 2
(PID.TID 0000.0001)  --> f_gentim2d = 0.999999955296517D-04 1
(PID.TID 0000.0001)  --> f_gentim2d = 0.000000000000000D+00 2
(PID.TID 0000.0001)  --> f_gentim2d = 0.000000000000000D+00 3
(PID.TID 0000.0001)  --> f_genarr3d = 0.000000000000000D+00 1
(PID.TID 0000.0001)  --> f_genarr3d = 0.000000000000000D+00 2
(PID.TID 0000.0001)  --> f_genarr3d = 0.000000000000000D+00 3
(PID.TID 0000.0001)  --> fc               = 0.331894340588699D+05
(PID.TID 0000.0001) Not writing cost function info to costfunction0000
(PID.TID 0000.0001)   early fc =  0.000000000000000D+00
(PID.TID 0000.0001)   local fc =  0.142473158078685D+04
(PID.TID 0000.0001)  global fc =  0.331894340588699D+05
(PID.TID 0000.0001) grdchk perturb(-)fc: fcpertminus =  3.31894340588699E+04
grad-res -------------------------------
 grad-res     0    3    3    1    1    1    1    1   3.31894343818E+04  3.31894347136E+04  3.31894340589E+04
 grad-res     0    3    3    3    0    1    1    1   2.86160372198E-02  3.27376474161E-02 -1.44031480133E-01
(PID.TID 0000.0001)  ADM  ref_cost_function      =  3.31894343817657E+04
(PID.TID 0000.0001)  ADM  adjoint_gradient       =  2.86160372197628E-02
(PID.TID 0000.0001)  ADM  finite-diff_grad       =  3.27376474160701E-02
(PID.TID 0000.0001) ====== End of gradient-check number   3 (ierr=  0) =======
(PID.TID 0000.0001) ====== Starts gradient-check number   4 (=ichknum) =======
 ph-test icomp, ncvarcomp, ichknum            4         594           4
 ph-grd _loc: bi, bj, icomptest, ichknum            1           1           3           4
 ph-grd -->hit<--            4           1           1           1
(PID.TID 0000.0001) grdchk pos: i,j,k=    4    1    1 ; bi,bj=   1   1 ; iobc=  1 ; rec=   1
(PID.TID 0000.0001) Start initial hydrostatic pressure computation
(PID.TID 0000.0001) Pressure is predetermined for buoyancyRelation OCEANIC
(PID.TID 0000.0001) 
(PID.TID 0000.0001) // =======================================================
(PID.TID 0000.0001) // Model current state
(PID.TID 0000.0001) // =======================================================
(PID.TID 0000.0001) 
(PID.TID 0000.0001) SOLVE_FOR_PRESSURE: putPmEinXvector =    F
 cg2d: Sum(rhs),rhsMax =   1.13674863689329E-01  6.80494402321186E+00
 cg2d: Sum(rhs),rhsMax =   1.86851253537919E-01  8.23075697483461E+00
 cg2d: Sum(rhs),rhsMax =   2.87992650800545E-01  7.97821468764866E+00
 cg2d: Sum(rhs),rhsMax =   3.94276103301920E-01  7.74858747613166E+00
 cg2d: Sum(rhs),rhsMax =   4.95270753313171E-01  7.65934820671813E+00
 cg2d: Sum(rhs),rhsMax =   5.92660207485469E-01  7.61970515873197E+00
 cg2d: Sum(rhs),rhsMax =   6.88070042803190E-01  7.59584828989767E+00
 cg2d: Sum(rhs),rhsMax =   7.82661243684874E-01  7.57582533111279E+00
(PID.TID 0000.0001) Did not write pickup because writePickupAtEnd = FALSE
(PID.TID 0000.0001) 
(PID.TID 0000.0001) == profiles_cost: begin ==
(PID.TID 0000.0001)  profiles_cost( 1, 1) =  0.134973461444339D+04 0.185786000000000D+06
(PID.TID 0000.0001)  profiles_cost( 1, 2) =  0.229260391968861D+05 0.185786000000000D+06
(PID.TID 0000.0001) == profiles_cost: end   ==
(PID.TID 0000.0001) 
(PID.TID 0000.0001)  --> f_profiles = 0.134973461444339D+04 1 1
(PID.TID 0000.0001)  --> f_profiles = 0.229260391968861D+05 1 2
(PID.TID 0000.0001)  --> f_gencost = 0.442644034039826D+04 1
(PID.TID 0000.0001)  --> f_gencost = 0.448722023437674D+04 2
(PID.TID 0000.0001)  --> f_gentim2d = 0.999999955296517D-04 1
(PID.TID 0000.0001)  --> f_gentim2d = 0.000000000000000D+00 2
(PID.TID 0000.0001)  --> f_gentim2d = 0.000000000000000D+00 3
(PID.TID 0000.0001)  --> f_genarr3d = 0.000000000000000D+00 1
(PID.TID 0000.0001)  --> f_genarr3d = 0.000000000000000D+00 2
(PID.TID 0000.0001)  --> f_genarr3d = 0.000000000000000D+00 3
(PID.TID 0000.0001)  --> fc               = 0.331894343861045D+05
(PID.TID 0000.0001) Not writing cost function info to costfunction0000
(PID.TID 0000.0001)   early fc =  0.000000000000000D+00
(PID.TID 0000.0001)   local fc =  0.142473249727557D+04
(PID.TID 0000.0001)  global fc =  0.331894343861045D+05
(PID.TID 0000.0001) grdchk perturb(+)fc: fcpertplus  =  3.31894343861045E+04
(PID.TID 0000.0001) Start initial hydrostatic pressure computation
(PID.TID 0000.0001) Pressure is predetermined for buoyancyRelation OCEANIC
(PID.TID 0000.0001) 
(PID.TID 0000.0001) // =======================================================
(PID.TID 0000.0001) // Model current state
(PID.TID 0000.0001) // =======================================================
(PID.TID 0000.0001) 
(PID.TID 0000.0001) SOLVE_FOR_PRESSURE: putPmEinXvector =    F
 cg2d: Sum(rhs),rhsMax =   1.13674863689076E-01  6.80494402322734E+00
 cg2d: Sum(rhs),rhsMax =   1.86851253537231E-01  8.23075697486459E+00
 cg2d: Sum(rhs),rhsMax =   2.87992650798902E-01  7.97821468769250E+00
 cg2d: Sum(rhs),rhsMax =   3.94276103298978E-01  7.74858747618816E+00
 cg2d: Sum(rhs),rhsMax =   4.95270753308915E-01  7.65934820678655E+00
 cg2d: Sum(rhs),rhsMax =   5.92660207479621E-01  7.61970515881125E+00
 cg2d: Sum(rhs),rhsMax =   6.88070042795850E-01  7.59584828998597E+00
 cg2d: Sum(rhs),rhsMax =   7.82661243676444E-01  7.57582533120898E+00
(PID.TID 0000.0001) Did not write pickup because writePickupAtEnd = FALSE
(PID.TID 0000.0001) 
(PID.TID 0000.0001) == profiles_cost: begin ==
(PID.TID 0000.0001)  profiles_cost( 1, 1) =  0.134973460505734D+04 0.185786000000000D+06
(PID.TID 0000.0001)  profiles_cost( 1, 2) =  0.229260391964885D+05 0.185786000000000D+06
(PID.TID 0000.0001) == profiles_cost: end   ==
(PID.TID 0000.0001) 
(PID.TID 0000.0001)  --> f_profiles = 0.134973460505734D+04 1 1
(PID.TID 0000.0001)  --> f_profiles = 0.229260391964885D+05 1 2
(PID.TID 0000.0001)  --> f_gencost = 0.442644042803301D+04 1
(PID.TID 0000.0001)  --> f_gencost = 0.448722009096924D+04 2
(PID.TID 0000.0001)  --> f_gentim2d = 0.999999955296517D-04 1
(PID.TID 0000.0001)  --> f_gentim2d = 0.000000000000000D+00 2
(PID.TID 0000.0001)  --> f_gentim2d = 0.000000000000000D+00 3
(PID.TID 0000.0001)  --> f_genarr3d = 0.000000000000000D+00 1
(PID.TID 0000.0001)  --> f_genarr3d = 0.000000000000000D+00 2
(PID.TID 0000.0001)  --> f_genarr3d = 0.000000000000000D+00 3
(PID.TID 0000.0001)  --> fc               = 0.331894343205481D+05
(PID.TID 0000.0001) Not writing cost function info to costfunction0000
(PID.TID 0000.0001)   early fc =  0.000000000000000D+00
(PID.TID 0000.0001)   local fc =  0.142473175104049D+04
(PID.TID 0000.0001)  global fc =  0.331894343205481D+05
(PID.TID 0000.0001) grdchk perturb(-)fc: fcpertminus =  3.31894343205481E+04
grad-res -------------------------------
 grad-res     0    4    4    1    1    1    1    1   3.31894343818E+04  3.31894343861E+04  3.31894343205E+04
 grad-res     0    4    4    4    0    1    1    1   4.69273794442E-03  3.27782072418E-03  3.01512088892E-01
(PID.TID 0000.0001)  ADM  ref_cost_function      =  3.31894343817657E+04
(PID.TID 0000.0001)  ADM  adjoint_gradient       =  4.69273794442415E-03
(PID.TID 0000.0001)  ADM  finite-diff_grad       =  3.27782072417904E-03
(PID.TID 0000.0001) ====== End of gradient-check number   4 (ierr=  0) =======
(PID.TID 0000.0001) 
(PID.TID 0000.0001) // =======================================================
(PID.TID 0000.0001) // Gradient check results  >>> START <<<
(PID.TID 0000.0001) // =======================================================
(PID.TID 0000.0001) 
(PID.TID 0000.0001)  EPS = 1.000000E-02 ; grdchk CTRL var/file name: "xx_atempA"
(PID.TID 0000.0001) 
(PID.TID 0000.0001) grdchk output h.p:  Id Itile Jtile LAYER   bi   bj   X(Id)           X(Id)+/-EPS
(PID.TID 0000.0001) grdchk output h.c:  Id  FC                   FC1                  FC2
(PID.TID 0000.0001) grdchk output h.g:  Id     FC1-FC2/(2*EPS)      ADJ GRAD(FC)         1-FDGRD/ADGRD
(PID.TID 0000.0001) 
(PID.TID 0000.0001) grdchk output (p):   1     1     1     1    1    1   0.000000000E+00 -1.000000000E-02
(PID.TID 0000.0001) grdchk output (c):   1  3.3189434381766E+04  3.3189435106970E+04  3.3189433720224E+04
(PID.TID 0000.0001) grdchk output (g):   1     6.9337323657237E-02  5.0982728600502E-02 -3.6001594188025E-01
(PID.TID 0000.0001) 
(PID.TID 0000.0001) grdchk output (p):   2     2     1     1    1    1   0.000000000E+00 -1.000000000E-02
(PID.TID 0000.0001) grdchk output (c):   2  3.3189434381766E+04  3.3189435011531E+04  3.3189433704306E+04
(PID.TID 0000.0001) grdchk output (g):   2     6.5361274755560E-02  4.9674987792969E-02 -3.1577837578878E-01
(PID.TID 0000.0001) 
(PID.TID 0000.0001) grdchk output (p):   3     3     1     1    1    1   0.000000000E+00 -1.000000000E-02
(PID.TID 0000.0001) grdchk output (c):   3  3.3189434381766E+04  3.3189434713623E+04  3.3189434058870E+04
(PID.TID 0000.0001) grdchk output (g):   3     3.2737647416070E-02  2.8616037219763E-02 -1.4403148013313E-01
(PID.TID 0000.0001) 
(PID.TID 0000.0001) grdchk output (p):   4     4     1     1    1    1   0.000000000E+00 -1.000000000E-02
(PID.TID 0000.0001) grdchk output (c):   4  3.3189434381766E+04  3.3189434386105E+04  3.3189434320548E+04
(PID.TID 0000.0001) grdchk output (g):   4     3.2778207241790E-03  4.6927379444242E-03  3.0151208889180E-01
(PID.TID 0000.0001) 
(PID.TID 0000.0001) grdchk  summary  :  RMS of    4 ratios =  2.9196834932958E-01
(PID.TID 0000.0001) 
(PID.TID 0000.0001) // =======================================================
(PID.TID 0000.0001) // Gradient check results  >>> END <<<
(PID.TID 0000.0001) // =======================================================
(PID.TID 0000.0001) 
(PID.TID 0000.0001)   Seconds in section "ALL                    [THE_MODEL_MAIN]":
(PID.TID 0000.0001)           User time:   146.91302276588976
(PID.TID 0000.0001)         System time:  0.70996398199349642
(PID.TID 0000.0001)     Wall clock time:   150.36704301834106
(PID.TID 0000.0001)          No. starts:           1
(PID.TID 0000.0001)           No. stops:           1
(PID.TID 0000.0001)   Seconds in section "INITIALISE_FIXED       [THE_MODEL_MAIN]":
(PID.TID 0000.0001)           User time:  0.57799199223518372
(PID.TID 0000.0001)         System time:   7.0148997008800507E-002
(PID.TID 0000.0001)     Wall clock time:  0.83146595954895020
(PID.TID 0000.0001)          No. starts:           1
(PID.TID 0000.0001)           No. stops:           1
(PID.TID 0000.0001)   Seconds in section "ADTHE_MAIN_LOOP          [ADJOINT RUN]":
(PID.TID 0000.0001)           User time:   72.732129037380219
(PID.TID 0000.0001)         System time:  0.41175201535224915
(PID.TID 0000.0001)     Wall clock time:   75.559532880783081
(PID.TID 0000.0001)          No. starts:           1
(PID.TID 0000.0001)           No. stops:           1
(PID.TID 0000.0001)   Seconds in section "FORWARD_STEP        [MAIN_DO_LOOP]":
(PID.TID 0000.0001)           User time:   82.868281006813049
(PID.TID 0000.0001)         System time:  0.10422703623771667
(PID.TID 0000.0001)     Wall clock time:   83.162929296493530
(PID.TID 0000.0001)          No. starts:          80
(PID.TID 0000.0001)           No. stops:          80
(PID.TID 0000.0001)   Seconds in section "UPDATE_R_STAR       [FORWARD_STEP]":
(PID.TID 0000.0001)           User time:   1.0408577919006348
(PID.TID 0000.0001)         System time:   5.9713423252105713E-004
(PID.TID 0000.0001)     Wall clock time:   1.0480573177337646
(PID.TID 0000.0001)          No. starts:         160
(PID.TID 0000.0001)           No. stops:         160
(PID.TID 0000.0001)   Seconds in section "LOAD_FIELDS_DRIVER  [FORWARD_STEP]":
(PID.TID 0000.0001)           User time:   1.9163385629653931
(PID.TID 0000.0001)         System time:   1.6146048903465271E-002
(PID.TID 0000.0001)     Wall clock time:   1.9636480808258057
(PID.TID 0000.0001)          No. starts:          80
(PID.TID 0000.0001)           No. stops:          80
(PID.TID 0000.0001)   Seconds in section "EXF_GETFORCING     [LOAD_FLDS_DRIVER]":
(PID.TID 0000.0001)           User time:   1.8686292171478271
(PID.TID 0000.0001)         System time:   1.4647081494331360E-002
(PID.TID 0000.0001)     Wall clock time:   1.9055383205413818
(PID.TID 0000.0001)          No. starts:          80
(PID.TID 0000.0001)           No. stops:          80
(PID.TID 0000.0001)   Seconds in section "EXTERNAL_FLDS_LOAD [LOAD_FLDS_DRIVER]":
(PID.TID 0000.0001)           User time:   5.1641464233398438E-004
(PID.TID 0000.0001)         System time:   9.8347663879394531E-007
(PID.TID 0000.0001)     Wall clock time:   5.5694580078125000E-004
(PID.TID 0000.0001)          No. starts:          80
(PID.TID 0000.0001)           No. stops:          80
(PID.TID 0000.0001)   Seconds in section "CTRL_MAP_FORCING  [FORWARD_STEP]":
(PID.TID 0000.0001)           User time:  0.14732515811920166
(PID.TID 0000.0001)         System time:   2.7954578399658203E-005
(PID.TID 0000.0001)     Wall clock time:  0.14733266830444336
(PID.TID 0000.0001)          No. starts:          80
(PID.TID 0000.0001)           No. stops:          80
(PID.TID 0000.0001)   Seconds in section "DO_ATMOSPHERIC_PHYS [FORWARD_STEP]":
(PID.TID 0000.0001)           User time:   3.4093737602233887E-002
(PID.TID 0000.0001)         System time:   1.2993812561035156E-005
(PID.TID 0000.0001)     Wall clock time:   3.4077644348144531E-002
(PID.TID 0000.0001)          No. starts:          80
(PID.TID 0000.0001)           No. stops:          80
(PID.TID 0000.0001)   Seconds in section "DO_OCEANIC_PHYS     [FORWARD_STEP]":
(PID.TID 0000.0001)           User time:   17.618304610252380
(PID.TID 0000.0001)         System time:   4.6895787119865417E-002
(PID.TID 0000.0001)     Wall clock time:   17.732823371887207
(PID.TID 0000.0001)          No. starts:          80
(PID.TID 0000.0001)           No. stops:          80
(PID.TID 0000.0001)   Seconds in section "SEAICE_MODEL    [DO_OCEANIC_PHYS]":
(PID.TID 0000.0001)           User time:   1.5991832017898560
(PID.TID 0000.0001)         System time:   7.2130113840103149E-003
(PID.TID 0000.0001)     Wall clock time:   1.6490674018859863
(PID.TID 0000.0001)          No. starts:          80
(PID.TID 0000.0001)           No. stops:          80
(PID.TID 0000.0001)   Seconds in section "SEAICE_DYNSOLVER   [SEAICE_MODEL]":
(PID.TID 0000.0001)           User time:   1.1804434061050415
(PID.TID 0000.0001)         System time:   7.1799904108047485E-003
(PID.TID 0000.0001)     Wall clock time:   1.2250840663909912
(PID.TID 0000.0001)          No. starts:          80
(PID.TID 0000.0001)           No. stops:          80
(PID.TID 0000.0001)   Seconds in section "GGL90_CALC [DO_OCEANIC_PHYS]":
(PID.TID 0000.0001)           User time:   2.9795036315917969
(PID.TID 0000.0001)         System time:   2.8073787689208984E-005
(PID.TID 0000.0001)     Wall clock time:   2.9814248085021973
(PID.TID 0000.0001)          No. starts:         240
(PID.TID 0000.0001)           No. stops:         240
(PID.TID 0000.0001)   Seconds in section "DYNAMICS            [FORWARD_STEP]":
(PID.TID 0000.0001)           User time:   14.832730293273926
(PID.TID 0000.0001)         System time:   1.2794137001037598E-004
(PID.TID 0000.0001)     Wall clock time:   14.838910818099976
(PID.TID 0000.0001)          No. starts:          80
(PID.TID 0000.0001)           No. stops:          80
(PID.TID 0000.0001)   Seconds in section "UPDATE_CG2D         [FORWARD_STEP]":
(PID.TID 0000.0001)           User time:   6.4095056056976318
(PID.TID 0000.0001)         System time:   3.9971172809600830E-003
(PID.TID 0000.0001)     Wall clock time:   6.4270963668823242
(PID.TID 0000.0001)          No. starts:          80
(PID.TID 0000.0001)           No. stops:          80
(PID.TID 0000.0001)   Seconds in section "SOLVE_FOR_PRESSURE  [FORWARD_STEP]":
(PID.TID 0000.0001)           User time:   1.3342306613922119
(PID.TID 0000.0001)         System time:   3.1024217605590820E-005
(PID.TID 0000.0001)     Wall clock time:   1.3346674442291260
(PID.TID 0000.0001)          No. starts:          80
(PID.TID 0000.0001)           No. stops:          80
(PID.TID 0000.0001)   Seconds in section "MOM_CORRECTION_STEP [FORWARD_STEP]":
(PID.TID 0000.0001)           User time:  0.32743978500366211
(PID.TID 0000.0001)         System time:   0.0000000000000000
(PID.TID 0000.0001)     Wall clock time:  0.32762050628662109
(PID.TID 0000.0001)          No. starts:          80
(PID.TID 0000.0001)           No. stops:          80
(PID.TID 0000.0001)   Seconds in section "INTEGR_CONTINUITY   [FORWARD_STEP]":
(PID.TID 0000.0001)           User time:  0.94293808937072754
(PID.TID 0000.0001)         System time:   1.9013881683349609E-005
(PID.TID 0000.0001)     Wall clock time:  0.94319725036621094
(PID.TID 0000.0001)          No. starts:          80
(PID.TID 0000.0001)           No. stops:          80
(PID.TID 0000.0001)   Seconds in section "CALC_R_STAR         [FORWARD_STEP]":
(PID.TID 0000.0001)           User time:   5.8700323104858398E-002
(PID.TID 0000.0001)         System time:   3.2037496566772461E-005
(PID.TID 0000.0001)     Wall clock time:   5.8762788772583008E-002
(PID.TID 0000.0001)          No. starts:          80
(PID.TID 0000.0001)           No. stops:          80
(PID.TID 0000.0001)   Seconds in section "BLOCKING_EXCHANGES  [FORWARD_STEP]":
(PID.TID 0000.0001)           User time:   7.9853599071502686
(PID.TID 0000.0001)         System time:   2.0003050565719604E-002
(PID.TID 0000.0001)     Wall clock time:   8.0289719104766846
(PID.TID 0000.0001)          No. starts:         160
(PID.TID 0000.0001)           No. stops:         160
(PID.TID 0000.0001)   Seconds in section "THERMODYNAMICS      [FORWARD_STEP]":
(PID.TID 0000.0001)           User time:   16.292306423187256
(PID.TID 0000.0001)         System time:   3.4998357295989990E-004
(PID.TID 0000.0001)     Wall clock time:   16.317201614379883
(PID.TID 0000.0001)          No. starts:          80
(PID.TID 0000.0001)           No. stops:          80
(PID.TID 0000.0001)   Seconds in section "TRC_CORRECTION_STEP [FORWARD_STEP]":
(PID.TID 0000.0001)           User time:   4.3845176696777344E-004
(PID.TID 0000.0001)         System time:   2.9653310775756836E-006
(PID.TID 0000.0001)     Wall clock time:   4.5824050903320312E-004
(PID.TID 0000.0001)          No. starts:          80
(PID.TID 0000.0001)           No. stops:          80
(PID.TID 0000.0001)   Seconds in section "MONITOR             [FORWARD_STEP]":
(PID.TID 0000.0001)           User time:  0.22292017936706543
(PID.TID 0000.0001)         System time:   9.8347663879394531E-007
(PID.TID 0000.0001)     Wall clock time:  0.22292065620422363
(PID.TID 0000.0001)          No. starts:          80
(PID.TID 0000.0001)           No. stops:          80
(PID.TID 0000.0001)   Seconds in section "COST_TILE           [FORWARD_STEP]":
(PID.TID 0000.0001)           User time:   3.8552284240722656E-004
(PID.TID 0000.0001)         System time:   0.0000000000000000
(PID.TID 0000.0001)     Wall clock time:   3.7193298339843750E-004
(PID.TID 0000.0001)          No. starts:          80
(PID.TID 0000.0001)           No. stops:          80
(PID.TID 0000.0001)   Seconds in section "DO_THE_MODEL_IO     [FORWARD_STEP]":
(PID.TID 0000.0001)           User time:  0.43979573249816895
(PID.TID 0000.0001)         System time:   7.9420208930969238E-003
(PID.TID 0000.0001)     Wall clock time:  0.44761872291564941
(PID.TID 0000.0001)          No. starts:          80
(PID.TID 0000.0001)           No. stops:          80
(PID.TID 0000.0001)   Seconds in section "DO_WRITE_PICKUP     [FORWARD_STEP]":
(PID.TID 0000.0001)           User time:  0.13502812385559082
(PID.TID 0000.0001)         System time:   7.9710185527801514E-003
(PID.TID 0000.0001)     Wall clock time:  0.14299988746643066
(PID.TID 0000.0001)          No. starts:          80
(PID.TID 0000.0001)           No. stops:          80
(PID.TID 0000.0001)   Seconds in section "COST_GENCOST_ALL    [ECCO SPIN-DOWN]":
(PID.TID 0000.0001)           User time:   1.5942792892456055
(PID.TID 0000.0001)         System time:   1.5989944338798523E-002
(PID.TID 0000.0001)     Wall clock time:   1.6505737304687500
(PID.TID 0000.0001)          No. starts:           9
(PID.TID 0000.0001)           No. stops:           9
(PID.TID 0000.0001)   Seconds in section "CTRL_COST_DRIVER [ECCO SPIN-DOWN]":
(PID.TID 0000.0001)           User time:  0.29499435424804688
(PID.TID 0000.0001)         System time:   1.5964046120643616E-002
(PID.TID 0000.0001)     Wall clock time:  0.31329202651977539
(PID.TID 0000.0001)          No. starts:           9
(PID.TID 0000.0001)           No. stops:           9
(PID.TID 0000.0001)   Seconds in section "CTRL_PACK           [THE_MODEL_MAIN]":
(PID.TID 0000.0001)           User time:  0.11183929443359375
(PID.TID 0000.0001)         System time:   1.1983990669250488E-002
(PID.TID 0000.0001)     Wall clock time:  0.14787817001342773
(PID.TID 0000.0001)          No. starts:           1
(PID.TID 0000.0001)           No. stops:           1
(PID.TID 0000.0001)   Seconds in section "CTRL_PACK     [THE_MODEL_MAIN]":
(PID.TID 0000.0001)           User time:  0.10754394531250000
(PID.TID 0000.0001)         System time:   1.1954009532928467E-002
(PID.TID 0000.0001)     Wall clock time:  0.12194204330444336
(PID.TID 0000.0001)          No. starts:           1
(PID.TID 0000.0001)           No. stops:           1
(PID.TID 0000.0001)   Seconds in section "GRDCHK_MAIN         [THE_MODEL_MAIN]":
(PID.TID 0000.0001)           User time:   73.383468627929688
(PID.TID 0000.0001)         System time:  0.20411896705627441
(PID.TID 0000.0001)     Wall clock time:   73.706166028976440
(PID.TID 0000.0001)          No. starts:           1
(PID.TID 0000.0001)           No. stops:           1
(PID.TID 0000.0001)   Seconds in section "INITIALISE_VARIA    [THE_MAIN_LOOP]":
(PID.TID 0000.0001)           User time:   4.5513534545898438
(PID.TID 0000.0001)         System time:   7.0191979408264160E-002
(PID.TID 0000.0001)     Wall clock time:   4.6566677093505859
(PID.TID 0000.0001)          No. starts:           8
(PID.TID 0000.0001)           No. stops:           8
(PID.TID 0000.0001)   Seconds in section "MAIN LOOP           [THE_MAIN_LOOP]":
(PID.TID 0000.0001)           User time:   68.789390563964844
(PID.TID 0000.0001)         System time:  0.13295000791549683
(PID.TID 0000.0001)     Wall clock time:   69.003185987472534
(PID.TID 0000.0001)          No. starts:           8
(PID.TID 0000.0001)           No. stops:           8
(PID.TID 0000.0001)   Seconds in section "COST_AVERAGESFIELDS [MAIN_DO_LOOP]":
(PID.TID 0000.0001)           User time:   3.6797256469726562
(PID.TID 0000.0001)         System time:   4.0360093116760254E-003
(PID.TID 0000.0001)     Wall clock time:   3.6847956180572510
(PID.TID 0000.0001)          No. starts:          64
(PID.TID 0000.0001)           No. stops:          64
(PID.TID 0000.0001)   Seconds in section "PROFILES_INLOOP    [MAIN_DO_LOOP]":
(PID.TID 0000.0001)           User time:  0.36520385742187500
(PID.TID 0000.0001)         System time:   3.0934810638427734E-005
(PID.TID 0000.0001)     Wall clock time:  0.36541843414306641
(PID.TID 0000.0001)          No. starts:          64
(PID.TID 0000.0001)           No. stops:          64
(PID.TID 0000.0001)   Seconds in section "MAIN_DO_LOOP        [THE_MAIN_LOOP]":
(PID.TID 0000.0001)           User time:   62.284362792968750
(PID.TID 0000.0001)         System time:   6.8212032318115234E-002
(PID.TID 0000.0001)     Wall clock time:   62.423041343688965
(PID.TID 0000.0001)          No. starts:          64
(PID.TID 0000.0001)           No. stops:          64
(PID.TID 0000.0001)   Seconds in section "COST_AVERAGESFIELDS [THE_MAIN_LOOP]":
(PID.TID 0000.0001)           User time:  0.47878265380859375
(PID.TID 0000.0001)         System time:   0.0000000000000000
(PID.TID 0000.0001)     Wall clock time:  0.48765206336975098
(PID.TID 0000.0001)          No. starts:           8
(PID.TID 0000.0001)           No. stops:           8
(PID.TID 0000.0001)   Seconds in section "PROFILES_INLOOP    [THE_MAIN_LOOP]":
(PID.TID 0000.0001)           User time:   8.7738037109375000E-004
(PID.TID 0000.0001)         System time:   0.0000000000000000
(PID.TID 0000.0001)     Wall clock time:   8.8977813720703125E-004
(PID.TID 0000.0001)          No. starts:           8
(PID.TID 0000.0001)           No. stops:           8
(PID.TID 0000.0001)   Seconds in section "ECCO_COST_DRIVER   [THE_MAIN_LOOP]":
(PID.TID 0000.0001)           User time:   1.6763839721679688
(PID.TID 0000.0001)         System time:   1.6038000583648682E-002
(PID.TID 0000.0001)     Wall clock time:   1.6927316188812256
(PID.TID 0000.0001)          No. starts:           8
(PID.TID 0000.0001)           No. stops:           8
(PID.TID 0000.0001)   Seconds in section "COST_FINAL         [ADJOINT SPIN-DOWN]":
(PID.TID 0000.0001)           User time:   4.9972534179687500E-003
(PID.TID 0000.0001)         System time:   7.2896480560302734E-004
(PID.TID 0000.0001)     Wall clock time:   5.7179927825927734E-003
(PID.TID 0000.0001)          No. starts:           8
(PID.TID 0000.0001)           No. stops:           8
(PID.TID 0000.0001) // ======================================================
(PID.TID 0000.0001) // Tile <-> Tile communication statistics
(PID.TID 0000.0001) // ======================================================
(PID.TID 0000.0001) // o Tile number: 000001
(PID.TID 0000.0001) //         No. X exchanges =              0
(PID.TID 0000.0001) //            Max. X spins =              0
(PID.TID 0000.0001) //            Min. X spins =     1000000000
(PID.TID 0000.0001) //          Total. X spins =              0
(PID.TID 0000.0001) //            Avg. X spins =       0.00E+00
(PID.TID 0000.0001) //         No. Y exchanges =              0
(PID.TID 0000.0001) //            Max. Y spins =              0
(PID.TID 0000.0001) //            Min. Y spins =     1000000000
(PID.TID 0000.0001) //          Total. Y spins =              0
(PID.TID 0000.0001) //            Avg. Y spins =       0.00E+00
(PID.TID 0000.0001) // o Tile number: 000002
(PID.TID 0000.0001) //         No. X exchanges =              0
(PID.TID 0000.0001) //            Max. X spins =              0
(PID.TID 0000.0001) //            Min. X spins =     1000000000
(PID.TID 0000.0001) //          Total. X spins =              0
(PID.TID 0000.0001) //            Avg. X spins =       0.00E+00
(PID.TID 0000.0001) //         No. Y exchanges =              0
(PID.TID 0000.0001) //            Max. Y spins =              0
(PID.TID 0000.0001) //            Min. Y spins =     1000000000
(PID.TID 0000.0001) //          Total. Y spins =              0
(PID.TID 0000.0001) //            Avg. Y spins =       0.00E+00
(PID.TID 0000.0001) // o Tile number: 000003
(PID.TID 0000.0001) //         No. X exchanges =              0
(PID.TID 0000.0001) //            Max. X spins =              0
(PID.TID 0000.0001) //            Min. X spins =     1000000000
(PID.TID 0000.0001) //          Total. X spins =              0
(PID.TID 0000.0001) //            Avg. X spins =       0.00E+00
(PID.TID 0000.0001) //         No. Y exchanges =              0
(PID.TID 0000.0001) //            Max. Y spins =              0
(PID.TID 0000.0001) //            Min. Y spins =     1000000000
(PID.TID 0000.0001) //          Total. Y spins =              0
(PID.TID 0000.0001) //            Avg. Y spins =       0.00E+00
(PID.TID 0000.0001) // o Thread number: 000001
(PID.TID 0000.0001) //            No. barriers =         250562
(PID.TID 0000.0001) //      Max. barrier spins =              1
(PID.TID 0000.0001) //      Min. barrier spins =              1
(PID.TID 0000.0001) //     Total barrier spins =         250562
(PID.TID 0000.0001) //      Avg. barrier spins =       1.00E+00
PROGRAM MAIN: Execution ended Normally
