(PID.TID 0000.0001) 
(PID.TID 0000.0001) // ======================================================
(PID.TID 0000.0001) //                      MITgcm UV
(PID.TID 0000.0001) //                      =========
(PID.TID 0000.0001) // ======================================================
(PID.TID 0000.0001) // execution environment starting up...
(PID.TID 0000.0001) 
(PID.TID 0000.0001) // MITgcmUV version:  checkpoint67v
(PID.TID 0000.0001) // Build user:        jm_c
(PID.TID 0000.0001) // Build host:        villon
(PID.TID 0000.0001) // Build date:        Sat Feb 13 16:17:54 EST 2021
(PID.TID 0000.0001) 
(PID.TID 0000.0001) // =======================================================
(PID.TID 0000.0001) // Execution Environment parameter file "eedata"
(PID.TID 0000.0001) // =======================================================
(PID.TID 0000.0001) ># Example "eedata" file
(PID.TID 0000.0001) ># Lines beginning "#" are comments
(PID.TID 0000.0001) ># nTx - No. threads per process in X
(PID.TID 0000.0001) ># nTy - No. threads per process in Y
(PID.TID 0000.0001) > &EEPARMS
(PID.TID 0000.0001) > useCubedSphereExchange=.TRUE.,
(PID.TID 0000.0001) > nTx=1,
(PID.TID 0000.0001) > nTy=1,
(PID.TID 0000.0001) > /
(PID.TID 0000.0001) ># Note: Some systems use & as the
(PID.TID 0000.0001) ># namelist terminator. Other systems
(PID.TID 0000.0001) ># use a / character (as shown here).
(PID.TID 0000.0001) 
(PID.TID 0000.0001) // =======================================================
(PID.TID 0000.0001) // Computational Grid Specification ( see files "SIZE.h" )
(PID.TID 0000.0001) //                                  ( and "eedata"       )
(PID.TID 0000.0001) // =======================================================
(PID.TID 0000.0001)      nPx =    8 ; /* No. processes in X */
(PID.TID 0000.0001)      nPy =    1 ; /* No. processes in Y */
(PID.TID 0000.0001)      nSx =    3 ; /* No. tiles in X per process */
(PID.TID 0000.0001)      nSy =    1 ; /* No. tiles in Y per process */
(PID.TID 0000.0001)      sNx =   16 ; /* Tile size in X */
(PID.TID 0000.0001)      sNy =   16 ; /* Tile size in Y */
(PID.TID 0000.0001)      OLx =    4 ; /* Tile overlap distance in X */
(PID.TID 0000.0001)      OLy =    4 ; /* Tile overlap distance in Y */
(PID.TID 0000.0001)      nTx =    1 ; /* No. threads in X per process */
(PID.TID 0000.0001)      nTy =    1 ; /* No. threads in Y per process */
(PID.TID 0000.0001)       Nr =   50 ; /* No. levels in the vertical   */
(PID.TID 0000.0001)       Nx =  384 ; /* Total domain size in X ( = nPx*nSx*sNx ) */
(PID.TID 0000.0001)       Ny =   16 ; /* Total domain size in Y ( = nPy*nSy*sNy ) */
(PID.TID 0000.0001)   nTiles =    3 ; /* Total no. tiles per process ( = nSx*nSy ) */
(PID.TID 0000.0001)   nProcs =    8 ; /* Total no. processes ( = nPx*nPy ) */
(PID.TID 0000.0001) nThreads =    1 ; /* Total no. threads per process ( = nTx*nTy ) */
(PID.TID 0000.0001) usingMPI =    T ; /* Flag used to control whether MPI is in use */
(PID.TID 0000.0001)                   /*  note: To execute a program with MPI calls */
(PID.TID 0000.0001)                   /*  it must be launched appropriately e.g     */
(PID.TID 0000.0001)                   /*  "mpirun -np 64 ......"                    */
(PID.TID 0000.0001) useCoupler=   F ; /* Flag used to control communications with   */
(PID.TID 0000.0001)                   /*  other model components, through a coupler */
(PID.TID 0000.0001) useNest2W_parent =    F ;/* Control 2-W Nesting comm */
(PID.TID 0000.0001) useNest2W_child  =    F ;/* Control 2-W Nesting comm */
(PID.TID 0000.0001) debugMode =    F ; /* print debug msg. (sequence of S/R calls)  */
(PID.TID 0000.0001) printMapIncludesZeros=    F ; /* print zeros in Std.Output maps */
(PID.TID 0000.0001) maxLengthPrt1D=   65 /* maxLength of 1D array printed to StdOut */
(PID.TID 0000.0001) 
(PID.TID 0000.0001) ======= Starting MPI parallel Run =========
(PID.TID 0000.0001)  My Processor Name (len:  6 ) = villon
(PID.TID 0000.0001)  Located at (  0,  0) on processor grid (0:  7,0:  0)
(PID.TID 0000.0001)  Origin at  (     1,     1) on global grid (1:   384,1:    16)
(PID.TID 0000.0001)  North neighbor = processor 0000
(PID.TID 0000.0001)  South neighbor = processor 0000
(PID.TID 0000.0001)   East neighbor = processor 0001
(PID.TID 0000.0001)   West neighbor = processor 0007
(PID.TID 0000.0001) // ======================================================
(PID.TID 0000.0001) // Mapping of tiles to threads
(PID.TID 0000.0001) // ======================================================
(PID.TID 0000.0001) // -o- Thread   1, tiles (   1:   3,   1:   1)
(PID.TID 0000.0001) 
(PID.TID 0000.0001) W2_READPARMS: opening data.exch2
(PID.TID 0000.0001)  OPEN_COPY_DATA_FILE: opening file data.exch2
(PID.TID 0000.0001) // =======================================================
(PID.TID 0000.0001) // Parameter file "data.exch2"
(PID.TID 0000.0001) // =======================================================
(PID.TID 0000.0001) ># EXCH2 Package: Wrapper-2 User Choice
(PID.TID 0000.0001) >#--------------------
(PID.TID 0000.0001) >#  preDefTopol   :: pre-defined Topology selector:
(PID.TID 0000.0001) >#                :: = 0 : topology defined from processing "data.exch2";
(PID.TID 0000.0001) >#                :: = 1 : simple, single facet topology;
(PID.TID 0000.0001) >#                :: = 2 : customized topology (w2_set_myown_facets)
(PID.TID 0000.0001) >#                :: = 3 : 6-facet Cube (3 face-dims: nRed, nGreen, nBlue).
(PID.TID 0000.0001) >#  dimsFacets    :: facet pair of dimensions (n1x,n1y, n2x,n2y ...)
(PID.TID 0000.0001) >#  facetEdgeLink :: Face-Edge connectivity map:
(PID.TID 0000.0001) >#    facetEdgeLink(i,j)=XX.1 : face(j)-edge(i) (i=1,2,3,4 <==> N,S,E,W)
(PID.TID 0000.0001) >#    is connected to Northern edge of face "XX" ; similarly,
(PID.TID 0000.0001) >#    = XX.2 : to Southern.E, XX.3 = Eastern.E, XX.4 = Western.E of face "XX"
(PID.TID 0000.0001) >#  blankList     :: List of "blank" tiles
(PID.TID 0000.0001) >#  W2_mapIO      :: global map IO selector (-1 = old type ; 0 = 1 long line in X
(PID.TID 0000.0001) >#                :: 1 = compact, mostly in Y dir)
(PID.TID 0000.0001) >#  W2_printMsg   :: option for information messages printing
(PID.TID 0000.0001) >#                :: <0 : write to log file ; =0 : minimum print ;
(PID.TID 0000.0001) >#                :: =1 : no duplicated print ; =2 : all processes do print
(PID.TID 0000.0001) >#--------------------
(PID.TID 0000.0001) > &W2_EXCH2_PARM01
(PID.TID 0000.0001) ># W2_printMsg= 0,
(PID.TID 0000.0001) >  W2_mapIO   = 1,
(PID.TID 0000.0001) >  preDefTopol=0,
(PID.TID 0000.0001) >  dimsFacets(1:12) = 32, 32, 32, 32, 32, 32, 32, 32, 32, 32, 32, 32,
(PID.TID 0000.0001) >  facetEdgeLink(1:4,1)= 3.4, 6.1, 2.4, 5.1,
(PID.TID 0000.0001) >  facetEdgeLink(1:4,2)= 3.2, 6.3, 4.2, 1.3,
(PID.TID 0000.0001) >  facetEdgeLink(1:4,3)= 5.4, 2.1, 4.4, 1.1,
(PID.TID 0000.0001) >  facetEdgeLink(1:4,4)= 5.2, 2.3, 6.2, 3.3,
(PID.TID 0000.0001) >  facetEdgeLink(1:4,5)= 1.4, 4.1, 6.4, 3.1,
(PID.TID 0000.0001) >  facetEdgeLink(1:4,6)= 1.2, 4.3, 2.2, 5.3,
(PID.TID 0000.0001) >#when using bathy_north.bin:
(PID.TID 0000.0001) >#  blankList=1,2,5,6,14,16,18,20,21,22,23,24,
(PID.TID 0000.0001) >#when using bathy_south.bin:
(PID.TID 0000.0001) ># blankList=3,4,7,8,9,10,11,12,13,15,17,19,
(PID.TID 0000.0001) > /
(PID.TID 0000.0001) 
(PID.TID 0000.0001) W2_READPARMS: finished reading data.exch2
(PID.TID 0000.0001) W2_useE2ioLayOut=    T ;/* T: use Exch2 glob IO map; F: use model default */
(PID.TID 0000.0001) W2_mapIO        =   1 ; /* select option for Exch2 global-IO map */
(PID.TID 0000.0001) W2_printMsg     =  -1 ; /* select option for printing information */
(PID.TID 0000.0001) ===== Start setting W2 TOPOLOGY:
(PID.TID 0000.0001)  write to log-file: w2_tile_topology.0000.log
(PID.TID 0000.0001) =====       setting W2 TOPOLOGY: Done
(PID.TID 0000.0001) 
(PID.TID 0000.0001)  INI_PARMS: opening model parameter file "data"
(PID.TID 0000.0001)  OPEN_COPY_DATA_FILE: opening file data
(PID.TID 0000.0001) // =======================================================
(PID.TID 0000.0001) // Parameter file "data"
(PID.TID 0000.0001) // =======================================================
(PID.TID 0000.0001) ># ====================
(PID.TID 0000.0001) ># | Model parameters |
(PID.TID 0000.0001) ># ====================
(PID.TID 0000.0001) >#
(PID.TID 0000.0001) ># Continuous equation parameters
(PID.TID 0000.0001) > &PARM01
(PID.TID 0000.0001) > tRef               = 3*23.,3*22.,21.,2*20.,19.,2*18.,17.,2*16.,15.,14.,13.,
(PID.TID 0000.0001) >                      12.,11.,2*9.,8.,7.,2*6.,2*5.,3*4.,3*3.,4*2.,12*1.,
(PID.TID 0000.0001) > sRef               = 50*34.5,
(PID.TID 0000.0001) > no_slip_sides  = .TRUE.,
(PID.TID 0000.0001) > no_slip_bottom = .TRUE.,
(PID.TID 0000.0001) >#
(PID.TID 0000.0001) > viscAr=1.E-3,
(PID.TID 0000.0001) >#
(PID.TID 0000.0001) > viscAh=1.E0,
(PID.TID 0000.0001) > viscAhGrid=2.E-2,
(PID.TID 0000.0001) ># viscAh=2.0e4,
(PID.TID 0000.0001) >#
(PID.TID 0000.0001) > diffKhT=1.E1,
(PID.TID 0000.0001) > diffKrT=1.E-5,
(PID.TID 0000.0001) > diffKhS=1.E1,
(PID.TID 0000.0001) > diffKrS=1.E-5,
(PID.TID 0000.0001) >#
(PID.TID 0000.0001) >### diffKrBL79surf=0.1E-4,
(PID.TID 0000.0001) >### diffKrBL79deep=1.0E-4,
(PID.TID 0000.0001) > bottomDragQuadratic = 0.001,
(PID.TID 0000.0001) >#when using ggl90
(PID.TID 0000.0001) > ivdc_kappa=10.,
(PID.TID 0000.0001) > implicitDiffusion=.TRUE.,
(PID.TID 0000.0001) > implicitViscosity=.TRUE.,
(PID.TID 0000.0001) > useRealFreshWaterFlux=.TRUE.,
(PID.TID 0000.0001) ># balanceThetaClimRelax=.TRUE.,
(PID.TID 0000.0001) > balanceSaltClimRelax=.TRUE.,
(PID.TID 0000.0001) > balanceEmPmR=.TRUE.,
(PID.TID 0000.0001) ># balanceQnet=.TRUE.,
(PID.TID 0000.0001) > allowFreezing=.FALSE.,
(PID.TID 0000.0001) >### hFacInf=0.2,
(PID.TID 0000.0001) >### hFacSup=2.0,
(PID.TID 0000.0001) > hFacMin=.2,
(PID.TID 0000.0001) > hFacMinDr=5.,
(PID.TID 0000.0001) > select_rStar=2,
(PID.TID 0000.0001) > nonlinFreeSurf=4,
(PID.TID 0000.0001) > gravity=9.81,
(PID.TID 0000.0001) > rhonil=1029.,
(PID.TID 0000.0001) > rhoConst=1029.,
(PID.TID 0000.0001) > rhoConstFresh=1000.,
(PID.TID 0000.0001) > convertFW2Salt=-1.,
(PID.TID 0000.0001) > eosType='JMD95Z',
(PID.TID 0000.0001) > implicitFreeSurface=.TRUE.,
(PID.TID 0000.0001) > exactConserv=.TRUE.,
(PID.TID 0000.0001) > useSingleCpuIO=.TRUE.,
(PID.TID 0000.0001) > tempAdvScheme=30,
(PID.TID 0000.0001) > saltAdvScheme=30,
(PID.TID 0000.0001) > tempVertAdvScheme=3,
(PID.TID 0000.0001) > saltVertAdvScheme=3,
(PID.TID 0000.0001) > tempImplVertAdv=.TRUE.,
(PID.TID 0000.0001) > saltImplVertAdv=.TRUE.,
(PID.TID 0000.0001) > staggerTimeStep=.TRUE.,
(PID.TID 0000.0001) > vectorInvariantMomentum=.TRUE.,
(PID.TID 0000.0001) >#when using the cd scheme:
(PID.TID 0000.0001) ># useCDscheme=.TRUE.,
(PID.TID 0000.0001) > useJamartWetPoints=.TRUE.,
(PID.TID 0000.0001) > readBinaryPrec=32,
(PID.TID 0000.0001) > writeBinaryPrec=32,
(PID.TID 0000.0001) > debugLevel=1,
(PID.TID 0000.0001) > /
(PID.TID 0000.0001) >
(PID.TID 0000.0001) ># Elliptic solver parameters
(PID.TID 0000.0001) > &PARM02
(PID.TID 0000.0001) > cg2dMaxIters=300,
(PID.TID 0000.0001) > cg2dTargetResWunit=1.E-12,
(PID.TID 0000.0001) > /
(PID.TID 0000.0001) >
(PID.TID 0000.0001) ># Time stepping parameters
(PID.TID 0000.0001) > &PARM03
(PID.TID 0000.0001) > nIter0=0,
(PID.TID 0000.0001) >#2 lev2 for testing:
(PID.TID 0000.0001) > nTimeSteps=8,
(PID.TID 0000.0001) >#60 years with 1h dt
(PID.TID 0000.0001) >#nTimeSteps=525985,
(PID.TID 0000.0001) >#
(PID.TID 0000.0001) > forcing_In_AB=.FALSE.,
(PID.TID 0000.0001) > momDissip_In_AB=.FALSE.,
(PID.TID 0000.0001) >#when using the cd scheme:
(PID.TID 0000.0001) ># epsAB_CD = 0.25,
(PID.TID 0000.0001) ># tauCD=172800.0,
(PID.TID 0000.0001) > deltaTmom   =3600.,
(PID.TID 0000.0001) > deltaTtracer=3600.,
(PID.TID 0000.0001) > deltaTfreesurf=3600.,
(PID.TID 0000.0001) > deltaTClock =3600.,
(PID.TID 0000.0001) >#when using ab2:
(PID.TID 0000.0001) ># abEps = 0.1,
(PID.TID 0000.0001) >#when using ab3:
(PID.TID 0000.0001) > doAB_onGtGs=.FALSE.,
(PID.TID 0000.0001) > alph_AB=0.5,
(PID.TID 0000.0001) > beta_AB=0.281105,
(PID.TID 0000.0001) >#
(PID.TID 0000.0001) > pChkptFreq  =31536000.0,
(PID.TID 0000.0001) > chkptFreq   =31536000.0,
(PID.TID 0000.0001) ># dumpFreq    =31536000.0,
(PID.TID 0000.0001) ># monitorFreq = 6307200.0,
(PID.TID 0000.0001) > monitorFreq = 7200.0,
(PID.TID 0000.0001) > dumpInitAndLast = .TRUE.,
(PID.TID 0000.0001) > adjMonitorFreq = 864000.0,
(PID.TID 0000.0001) > pickupStrictlyMatch=.FALSE.,
(PID.TID 0000.0001) > /
(PID.TID 0000.0001) >
(PID.TID 0000.0001) ># Gridding parameters
(PID.TID 0000.0001) > &PARM04
(PID.TID 0000.0001) > horizGridFile='grid_cs32',
(PID.TID 0000.0001) > usingCurvilinearGrid=.TRUE.,
(PID.TID 0000.0001) > delR =
(PID.TID 0000.0001) >     10.00, 10.00, 10.00, 10.00, 10.00, 10.00, 10.00, 10.01,
(PID.TID 0000.0001) >     10.03, 10.11, 10.32, 10.80, 11.76, 13.42, 16.04, 19.82, 24.85,
(PID.TID 0000.0001) >     31.10, 38.42, 46.50, 55.00, 63.50, 71.58, 78.90, 85.15, 90.18,
(PID.TID 0000.0001) >     93.96, 96.58, 98.25, 99.25,100.01,101.33,104.56,111.33,122.83,
(PID.TID 0000.0001) >     139.09,158.94,180.83,203.55,226.50,249.50,272.50,295.50,318.50,
(PID.TID 0000.0001) >     341.50,364.50,387.50,410.50,433.50,456.50,
(PID.TID 0000.0001) > /
(PID.TID 0000.0001) >
(PID.TID 0000.0001) ># Input datasets
(PID.TID 0000.0001) > &PARM05
(PID.TID 0000.0001) > adTapeDir='tapes',
(PID.TID 0000.0001) ># bathyFile      ='bathy_shallow.bin',
(PID.TID 0000.0001) > bathyFile      ='bathy_global.bin',
(PID.TID 0000.0001) ># bathyFile      ='bathy_north.bin',
(PID.TID 0000.0001) ># bathyFile      ='bathy_south.bin',
(PID.TID 0000.0001) > hydrogThetaFile='some_T_atlas.bin',
(PID.TID 0000.0001) > hydrogSaltFile ='some_S_atlas.bin',
(PID.TID 0000.0001) >#
(PID.TID 0000.0001) > /
(PID.TID 0000.0001) 
(PID.TID 0000.0001)  INI_PARMS ; starts to read PARM01
(PID.TID 0000.0001)  INI_PARMS ; read PARM01 : OK
(PID.TID 0000.0001)  INI_PARMS ; starts to read PARM02
(PID.TID 0000.0001)  INI_PARMS ; read PARM02 : OK
(PID.TID 0000.0001)  INI_PARMS ; starts to read PARM03
(PID.TID 0000.0001)  INI_PARMS ; read PARM03 : OK
(PID.TID 0000.0001)  INI_PARMS ; starts to read PARM04
(PID.TID 0000.0001)  INI_PARMS ; read PARM04 : OK
(PID.TID 0000.0001)  INI_PARMS ; starts to read PARM05
(PID.TID 0000.0001)  INI_PARMS ; read PARM05 : OK
(PID.TID 0000.0001)  INI_PARMS: finished reading file "data"
(PID.TID 0000.0001)  PACKAGES_BOOT: opening data.pkg
(PID.TID 0000.0001)  OPEN_COPY_DATA_FILE: opening file data.pkg
(PID.TID 0000.0001) // =======================================================
(PID.TID 0000.0001) // Parameter file "data.pkg"
(PID.TID 0000.0001) // =======================================================
(PID.TID 0000.0001) ># Packages
(PID.TID 0000.0001) > &PACKAGES
(PID.TID 0000.0001) > useEXF             = .TRUE.,
(PID.TID 0000.0001) > useCAL             = .TRUE.,
(PID.TID 0000.0001) > useGMRedi          = .TRUE.,
(PID.TID 0000.0001) > useSeaice          = .TRUE.,
(PID.TID 0000.0001) > useGGL90           = .TRUE.,
(PID.TID 0000.0001) > useSALT_PlUME      = .TRUE.,
(PID.TID 0000.0001) > useDiagnostics     = .FALSE.,
(PID.TID 0000.0001) > useECCO            = .TRUE.,
(PID.TID 0000.0001) > useCTRL            = .TRUE.,
(PID.TID 0000.0001) > useProfiles        = .TRUE.,
(PID.TID 0000.0001) > useAUTODIFF        = .TRUE.,
(PID.TID 0000.0001) > useSMOOTH          = .TRUE.,
(PID.TID 0000.0001) > useGrdchk          = .TRUE.,
(PID.TID 0000.0001) >#
(PID.TID 0000.0001) >#useSBO             = .TRUE.,
(PID.TID 0000.0001) >#useRBCS            = .TRUE.,
(PID.TID 0000.0001) >#useKPP             = .TRUE.,
(PID.TID 0000.0001) >#useThsice          = .TRUE.,
(PID.TID 0000.0001) >#useDOWN_SLOPE      = .TRUE.,
(PID.TID 0000.0001) >#useLayers          = .TRUE.,
(PID.TID 0000.0001) >#usePtracers        = .TRUE.,
(PID.TID 0000.0001) >#useBBL             = .TRUE.,
(PID.TID 0000.0001) > /
(PID.TID 0000.0001) 
(PID.TID 0000.0001)  PACKAGES_BOOT: finished reading data.pkg
(PID.TID 0000.0001)  PACKAGES_BOOT: On/Off package Summary
 --------  pkgs with a standard "usePKG" On/Off switch in "data.pkg":  --------
 pkg/ggl90                compiled   and   used ( useGGL90                 = T )
 pkg/gmredi               compiled   and   used ( useGMRedi                = T )
 pkg/cal                  compiled   and   used ( useCAL                   = T )
 pkg/exf                  compiled   and   used ( useEXF                   = T )
 pkg/autodiff             compiled   and   used ( useAUTODIFF              = T )
 pkg/grdchk               compiled   and   used ( useGrdchk                = T )
 pkg/smooth               compiled   and   used ( useSMOOTH                = T )
 pkg/profiles             compiled   and   used ( usePROFILES              = T )
 pkg/ecco                 compiled   and   used ( useECCO                  = T )
 pkg/ctrl                 compiled   and   used ( useCTRL                  = T )
 pkg/sbo                  compiled but not used ( useSBO                   = F )
 pkg/seaice               compiled   and   used ( useSEAICE                = T )
 pkg/salt_plume           compiled   and   used ( useSALT_PLUME            = T )
 pkg/diagnostics          compiled but not used ( useDiagnostics           = F )
 -------- pkgs without standard "usePKG" On/Off switch in "data.pkg":  --------
 pkg/generic_advdiff      compiled   and   used ( useGAD                   = T )
 pkg/mom_common           compiled   and   used ( momStepping              = T )
 pkg/mom_vecinv           compiled   and   used ( +vectorInvariantMomentum = T )
 pkg/monitor              compiled   and   used ( monitorFreq > 0.         = T )
 pkg/debug                compiled but not used ( debugMode                = F )
 pkg/exch2                compiled   and   used
 pkg/rw                   compiled   and   used
 pkg/mdsio                compiled   and   used
 pkg/autodiff             compiled   and   used
 pkg/cost                 compiled   and   used
(PID.TID 0000.0001)  PACKAGES_BOOT: End of package Summary
(PID.TID 0000.0001) 
(PID.TID 0000.0001) CAL_READPARMS: opening data.cal
(PID.TID 0000.0001)  OPEN_COPY_DATA_FILE: opening file data.cal
(PID.TID 0000.0001) // =======================================================
(PID.TID 0000.0001) // Parameter file "data.cal"
(PID.TID 0000.0001) // =======================================================
(PID.TID 0000.0001) >#
(PID.TID 0000.0001) ># *******************
(PID.TID 0000.0001) ># Calendar Parameters
(PID.TID 0000.0001) ># *******************
(PID.TID 0000.0001) > &CAL_NML
(PID.TID 0000.0001) > TheCalendar='gregorian',
(PID.TID 0000.0001) > calendarDumps=.TRUE.,
(PID.TID 0000.0001) ># TheCalendar='model',
(PID.TID 0000.0001) > startDate_1=19480101,
(PID.TID 0000.0001) > startDate_2=120000,
(PID.TID 0000.0001) > /
(PID.TID 0000.0001) 
(PID.TID 0000.0001) CAL_READPARMS: finished reading data.cal
(PID.TID 0000.0001) EXF_READPARMS: opening data.exf
(PID.TID 0000.0001)  OPEN_COPY_DATA_FILE: opening file data.exf
(PID.TID 0000.0001) // =======================================================
(PID.TID 0000.0001) // Parameter file "data.exf"
(PID.TID 0000.0001) // =======================================================
(PID.TID 0000.0001) ># *********************
(PID.TID 0000.0001) ># External Forcing Data
(PID.TID 0000.0001) ># *********************
(PID.TID 0000.0001) >#
(PID.TID 0000.0001) > &EXF_NML_01
(PID.TID 0000.0001) >#see MITgcm/verification/global_ocean.cs32x15/input.icedyn/data.exf
(PID.TID 0000.0001) > exf_albedo        = 0.066,
(PID.TID 0000.0001) > ht                = 10.,
(PID.TID 0000.0001) > ocean_emissivity  = 1.,
(PID.TID 0000.0001) > atmrho            = 1.22,
(PID.TID 0000.0001) > humid_fac         = .608,
(PID.TID 0000.0001) >#
(PID.TID 0000.0001) > exf_iprec         = 32,
(PID.TID 0000.0001) > useExfCheckRange  = .FALSE.,
(PID.TID 0000.0001) > repeatPeriod      = 31536000.,
(PID.TID 0000.0001) > useAtmWind        = .TRUE.,
(PID.TID 0000.0001) > /
(PID.TID 0000.0001) >#
(PID.TID 0000.0001) > &EXF_NML_02
(PID.TID 0000.0001) > uwindfile         = 'CORE2_u10m_6hrly_r2_cnyf',
(PID.TID 0000.0001) > vwindfile         = 'CORE2_v10m_6hrly_r2_cnyf',
(PID.TID 0000.0001) > atempfile         = 'CORE2_tmp10m_6hrly_r2_cnyf',
(PID.TID 0000.0001) > aqhfile           = 'CORE2_spfh10m_6hrly_r2_cnyf',
(PID.TID 0000.0001) > precipfile        = 'CORE2_rain_monthly_r2_cnyf',
(PID.TID 0000.0001) > swdownfile        = 'CORE2_dsw_daily_r2_cnyf',
(PID.TID 0000.0001) > lwdownfile        = 'CORE2_dlw_daily_r2_cnyf',
(PID.TID 0000.0001) >#
(PID.TID 0000.0001) > ustressstartdate1   = 19470101,
(PID.TID 0000.0001) > ustressstartdate2   = 030000,
(PID.TID 0000.0001) > ustressperiod       = 21600.0,
(PID.TID 0000.0001) >#
(PID.TID 0000.0001) > vstressstartdate1   = 19470101,
(PID.TID 0000.0001) > vstressstartdate2   = 030000,
(PID.TID 0000.0001) > vstressperiod       = 21600.0,
(PID.TID 0000.0001) >#
(PID.TID 0000.0001) > atempstartdate1   = 19470101,
(PID.TID 0000.0001) > atempstartdate2   = 030000,
(PID.TID 0000.0001) > atempperiod       = 21600.0,
(PID.TID 0000.0001) >#
(PID.TID 0000.0001) > aqhstartdate1     = 19470101,
(PID.TID 0000.0001) > aqhstartdate2     = 030000,
(PID.TID 0000.0001) > aqhperiod         = 21600.0,
(PID.TID 0000.0001) >#
(PID.TID 0000.0001) > precipstartdate1  = 19470115,
(PID.TID 0000.0001) > precipstartdate2  = 120000,
(PID.TID 0000.0001) > precipperiod      = 2628000.0,
(PID.TID 0000.0001) >#or precipperiod = -12.,
(PID.TID 0000.0001) >#
(PID.TID 0000.0001) > runoffstartdate1  = 19470115,
(PID.TID 0000.0001) > runoffstartdate2  = 120000,
(PID.TID 0000.0001) > runoffperiod      = 2628000.0,
(PID.TID 0000.0001) >#
(PID.TID 0000.0001) > uwindstartdate1   = 19470101,
(PID.TID 0000.0001) > uwindstartdate2   = 030000,
(PID.TID 0000.0001) > uwindperiod       = 21600.0,
(PID.TID 0000.0001) >#
(PID.TID 0000.0001) > vwindstartdate1   = 19470101,
(PID.TID 0000.0001) > vwindstartdate2   = 030000,
(PID.TID 0000.0001) > vwindperiod       = 21600.0,
(PID.TID 0000.0001) >#
(PID.TID 0000.0001) > wspeedstartdate1   = 19470101,
(PID.TID 0000.0001) > wspeedstartdate2   = 120000,
(PID.TID 0000.0001) > wspeedperiod       = 21600.0,
(PID.TID 0000.0001) >#
(PID.TID 0000.0001) > swdownstartdate1  = 19470101,
(PID.TID 0000.0001) > swdownstartdate2  = 120000,
(PID.TID 0000.0001) > swdownperiod      = 86400.0,
(PID.TID 0000.0001) >#
(PID.TID 0000.0001) > lwdownstartdate1  = 19470101,
(PID.TID 0000.0001) > lwdownstartdate2  = 120000,
(PID.TID 0000.0001) > lwdownperiod      = 86400.0,
(PID.TID 0000.0001) >#
(PID.TID 0000.0001) > apressurestartdate1   = 19470101,
(PID.TID 0000.0001) > apressurestartdate2   = 120000,
(PID.TID 0000.0001) > apressureperiod       = 21600.0,
(PID.TID 0000.0001) >#
(PID.TID 0000.0001) > climsssfile       = 'some_SSS_atlas.bin',
(PID.TID 0000.0001) > climsssperiod     = -12.,
(PID.TID 0000.0001) ># climsssTauRelax   = 15768000.,
(PID.TID 0000.0001) > climsssTauRelax   = 25920000.,
(PID.TID 0000.0001) > /
(PID.TID 0000.0001) >#
(PID.TID 0000.0001) > &EXF_NML_03
(PID.TID 0000.0001) >#NOT FOR EIG exf_offset_atemp  = 273.3971,
(PID.TID 0000.0001) > exf_offset_atemp  = 273.15,
(PID.TID 0000.0001) >#not with core2_cnyf exf_inscal_runoff = 1.e-06,
(PID.TID 0000.0001) ># to compensate for sea level rise for nlfs/realFWF
(PID.TID 0000.0001) ># precip_exfremo_intercept = 1.073E-9,
(PID.TID 0000.0001) ># precip_exfremo_slope = -3.340E-18,
(PID.TID 0000.0001) > /
(PID.TID 0000.0001) >#
(PID.TID 0000.0001) > &EXF_NML_04
(PID.TID 0000.0001) > runoff_interpMethod = 0,
(PID.TID 0000.0001) > climsss_interpMethod = 0,
(PID.TID 0000.0001) >#
(PID.TID 0000.0001) > atemp_lon0        = 0.00D0,
(PID.TID 0000.0001) > atemp_lon_inc     = 1.875D0,
(PID.TID 0000.0001) > atemp_lat0        = -88.5420D0,
(PID.TID 0000.0001) > atemp_lat_inc     = 1.8888, 1.9000, 1.9024, 1.9034, 1.9039, 1.9042,
(PID.TID 0000.0001) >     1.9042, 1.9044, 1.9045, 1.9045, 1.9046, 1.9046, 1.9046, 1.9046,
(PID.TID 0000.0001) >     1.9047, 1.9046, 1.9047, 1.9047, 1.9047, 1.9047, 1.9047, 1.9047,
(PID.TID 0000.0001) >     1.9047, 1.9047, 1.9047, 1.9047, 1.9048, 1.9047, 1.9047, 1.9047,
(PID.TID 0000.0001) >     1.9047, 1.9048, 1.9047, 1.9047, 1.9048, 1.9047, 1.9047, 1.9048,
(PID.TID 0000.0001) >     1.9047, 1.9047, 1.9048, 1.9047, 1.9047, 1.9048, 1.9047, 1.9047,
(PID.TID 0000.0001) >     1.9048, 1.9047, 1.9047, 1.9048, 1.9047, 1.9047, 1.9048, 1.9047,
(PID.TID 0000.0001) >     1.9047, 1.9048, 1.9047, 1.9047, 1.9048, 1.9047, 1.9047, 1.9048,
(PID.TID 0000.0001) >     1.9047, 1.9047, 1.9047, 1.9047, 1.9048, 1.9047, 1.9047, 1.9047,
(PID.TID 0000.0001) >     1.9047, 1.9047, 1.9047, 1.9047, 1.9047, 1.9047, 1.9047, 1.9046,
(PID.TID 0000.0001) >     1.9047, 1.9046, 1.9046, 1.9046, 1.9046, 1.9045, 1.9045, 1.9044,
(PID.TID 0000.0001) >     1.9042, 1.9042, 1.9039, 1.9034, 1.9024, 1.9000, 1.8888, 1.8888,
(PID.TID 0000.0001) > atemp_nlon        = 192,
(PID.TID 0000.0001) > atemp_nlat        = 94,
(PID.TID 0000.0001) >#
(PID.TID 0000.0001) > aqh_lon0          = 0.00D0,
(PID.TID 0000.0001) > aqh_lon_inc       = 1.875D0,
(PID.TID 0000.0001) > aqh_lat0          = -88.5420D0,
(PID.TID 0000.0001) > aqh_lat_inc       = 1.8888, 1.9000, 1.9024, 1.9034, 1.9039, 1.9042,
(PID.TID 0000.0001) >     1.9042, 1.9044, 1.9045, 1.9045, 1.9046, 1.9046, 1.9046, 1.9046,
(PID.TID 0000.0001) >     1.9047, 1.9046, 1.9047, 1.9047, 1.9047, 1.9047, 1.9047, 1.9047,
(PID.TID 0000.0001) >     1.9047, 1.9047, 1.9047, 1.9047, 1.9048, 1.9047, 1.9047, 1.9047,
(PID.TID 0000.0001) >     1.9047, 1.9048, 1.9047, 1.9047, 1.9048, 1.9047, 1.9047, 1.9048,
(PID.TID 0000.0001) >     1.9047, 1.9047, 1.9048, 1.9047, 1.9047, 1.9048, 1.9047, 1.9047,
(PID.TID 0000.0001) >     1.9048, 1.9047, 1.9047, 1.9048, 1.9047, 1.9047, 1.9048, 1.9047,
(PID.TID 0000.0001) >     1.9047, 1.9048, 1.9047, 1.9047, 1.9048, 1.9047, 1.9047, 1.9048,
(PID.TID 0000.0001) >     1.9047, 1.9047, 1.9047, 1.9047, 1.9048, 1.9047, 1.9047, 1.9047,
(PID.TID 0000.0001) >     1.9047, 1.9047, 1.9047, 1.9047, 1.9047, 1.9047, 1.9047, 1.9046,
(PID.TID 0000.0001) >     1.9047, 1.9046, 1.9046, 1.9046, 1.9046, 1.9045, 1.9045, 1.9044,
(PID.TID 0000.0001) >     1.9042, 1.9042, 1.9039, 1.9034, 1.9024, 1.9000, 1.8888, 1.8888,
(PID.TID 0000.0001) > aqh_nlon          = 192,
(PID.TID 0000.0001) > aqh_nlat          = 94,
(PID.TID 0000.0001) >#
(PID.TID 0000.0001) > precip_lon0       = 0.00D0,
(PID.TID 0000.0001) > precip_lon_inc    = 1.875D0,
(PID.TID 0000.0001) > precip_lat0       = -88.5420D0,
(PID.TID 0000.0001) > precip_lat_inc    = 1.8888, 1.9000, 1.9024, 1.9034, 1.9039, 1.9042,
(PID.TID 0000.0001) >     1.9042, 1.9044, 1.9045, 1.9045, 1.9046, 1.9046, 1.9046, 1.9046,
(PID.TID 0000.0001) >     1.9047, 1.9046, 1.9047, 1.9047, 1.9047, 1.9047, 1.9047, 1.9047,
(PID.TID 0000.0001) >     1.9047, 1.9047, 1.9047, 1.9047, 1.9048, 1.9047, 1.9047, 1.9047,
(PID.TID 0000.0001) >     1.9047, 1.9048, 1.9047, 1.9047, 1.9048, 1.9047, 1.9047, 1.9048,
(PID.TID 0000.0001) >     1.9047, 1.9047, 1.9048, 1.9047, 1.9047, 1.9048, 1.9047, 1.9047,
(PID.TID 0000.0001) >     1.9048, 1.9047, 1.9047, 1.9048, 1.9047, 1.9047, 1.9048, 1.9047,
(PID.TID 0000.0001) >     1.9047, 1.9048, 1.9047, 1.9047, 1.9048, 1.9047, 1.9047, 1.9048,
(PID.TID 0000.0001) >     1.9047, 1.9047, 1.9047, 1.9047, 1.9048, 1.9047, 1.9047, 1.9047,
(PID.TID 0000.0001) >     1.9047, 1.9047, 1.9047, 1.9047, 1.9047, 1.9047, 1.9047, 1.9046,
(PID.TID 0000.0001) >     1.9047, 1.9046, 1.9046, 1.9046, 1.9046, 1.9045, 1.9045, 1.9044,
(PID.TID 0000.0001) >     1.9042, 1.9042, 1.9039, 1.9034, 1.9024, 1.9000, 1.8888, 1.8888,
(PID.TID 0000.0001) > precip_nlon       = 192,
(PID.TID 0000.0001) > precip_nlat       = 94,
(PID.TID 0000.0001) >#
(PID.TID 0000.0001) > uwind_lon0        = 0.00D0,
(PID.TID 0000.0001) > uwind_lon_inc     = 1.875D0,
(PID.TID 0000.0001) > uwind_lat0        = -88.5420D0,
(PID.TID 0000.0001) > uwind_lat_inc     = 1.8888, 1.9000, 1.9024, 1.9034, 1.9039, 1.9042,
(PID.TID 0000.0001) >     1.9042, 1.9044, 1.9045, 1.9045, 1.9046, 1.9046, 1.9046, 1.9046,
(PID.TID 0000.0001) >     1.9047, 1.9046, 1.9047, 1.9047, 1.9047, 1.9047, 1.9047, 1.9047,
(PID.TID 0000.0001) >     1.9047, 1.9047, 1.9047, 1.9047, 1.9048, 1.9047, 1.9047, 1.9047,
(PID.TID 0000.0001) >     1.9047, 1.9048, 1.9047, 1.9047, 1.9048, 1.9047, 1.9047, 1.9048,
(PID.TID 0000.0001) >     1.9047, 1.9047, 1.9048, 1.9047, 1.9047, 1.9048, 1.9047, 1.9047,
(PID.TID 0000.0001) >     1.9048, 1.9047, 1.9047, 1.9048, 1.9047, 1.9047, 1.9048, 1.9047,
(PID.TID 0000.0001) >     1.9047, 1.9048, 1.9047, 1.9047, 1.9048, 1.9047, 1.9047, 1.9048,
(PID.TID 0000.0001) >     1.9047, 1.9047, 1.9047, 1.9047, 1.9048, 1.9047, 1.9047, 1.9047,
(PID.TID 0000.0001) >     1.9047, 1.9047, 1.9047, 1.9047, 1.9047, 1.9047, 1.9047, 1.9046,
(PID.TID 0000.0001) >     1.9047, 1.9046, 1.9046, 1.9046, 1.9046, 1.9045, 1.9045, 1.9044,
(PID.TID 0000.0001) >     1.9042, 1.9042, 1.9039, 1.9034, 1.9024, 1.9000, 1.8888, 1.8888,
(PID.TID 0000.0001) > uwind_nlon        = 192,
(PID.TID 0000.0001) > uwind_nlat        = 94,
(PID.TID 0000.0001) >#
(PID.TID 0000.0001) > vwind_lon0        = 0.00D0,
(PID.TID 0000.0001) > vwind_lon_inc     = 1.875D0,
(PID.TID 0000.0001) > vwind_lat0        = -88.5420D0,
(PID.TID 0000.0001) > vwind_lat_inc     = 1.8888, 1.9000, 1.9024, 1.9034, 1.9039, 1.9042,
(PID.TID 0000.0001) >     1.9042, 1.9044, 1.9045, 1.9045, 1.9046, 1.9046, 1.9046, 1.9046,
(PID.TID 0000.0001) >     1.9047, 1.9046, 1.9047, 1.9047, 1.9047, 1.9047, 1.9047, 1.9047,
(PID.TID 0000.0001) >     1.9047, 1.9047, 1.9047, 1.9047, 1.9048, 1.9047, 1.9047, 1.9047,
(PID.TID 0000.0001) >     1.9047, 1.9048, 1.9047, 1.9047, 1.9048, 1.9047, 1.9047, 1.9048,
(PID.TID 0000.0001) >     1.9047, 1.9047, 1.9048, 1.9047, 1.9047, 1.9048, 1.9047, 1.9047,
(PID.TID 0000.0001) >     1.9048, 1.9047, 1.9047, 1.9048, 1.9047, 1.9047, 1.9048, 1.9047,
(PID.TID 0000.0001) >     1.9047, 1.9048, 1.9047, 1.9047, 1.9048, 1.9047, 1.9047, 1.9048,
(PID.TID 0000.0001) >     1.9047, 1.9047, 1.9047, 1.9047, 1.9048, 1.9047, 1.9047, 1.9047,
(PID.TID 0000.0001) >     1.9047, 1.9047, 1.9047, 1.9047, 1.9047, 1.9047, 1.9047, 1.9046,
(PID.TID 0000.0001) >     1.9047, 1.9046, 1.9046, 1.9046, 1.9046, 1.9045, 1.9045, 1.9044,
(PID.TID 0000.0001) >     1.9042, 1.9042, 1.9039, 1.9034, 1.9024, 1.9000, 1.8888, 1.8888,
(PID.TID 0000.0001) > vwind_nlon        = 192,
(PID.TID 0000.0001) > vwind_nlat        = 94,
(PID.TID 0000.0001) >#
(PID.TID 0000.0001) > swdown_lon0       = 0.00D0,
(PID.TID 0000.0001) > swdown_lon_inc    = 1.875D0,
(PID.TID 0000.0001) > swdown_lat0       = -88.5420D0,
(PID.TID 0000.0001) > swdown_lat_inc    = 1.8888, 1.9000, 1.9024, 1.9034, 1.9039, 1.9042,
(PID.TID 0000.0001) >     1.9042, 1.9044, 1.9045, 1.9045, 1.9046, 1.9046, 1.9046, 1.9046,
(PID.TID 0000.0001) >     1.9047, 1.9046, 1.9047, 1.9047, 1.9047, 1.9047, 1.9047, 1.9047,
(PID.TID 0000.0001) >     1.9047, 1.9047, 1.9047, 1.9047, 1.9048, 1.9047, 1.9047, 1.9047,
(PID.TID 0000.0001) >     1.9047, 1.9048, 1.9047, 1.9047, 1.9048, 1.9047, 1.9047, 1.9048,
(PID.TID 0000.0001) >     1.9047, 1.9047, 1.9048, 1.9047, 1.9047, 1.9048, 1.9047, 1.9047,
(PID.TID 0000.0001) >     1.9048, 1.9047, 1.9047, 1.9048, 1.9047, 1.9047, 1.9048, 1.9047,
(PID.TID 0000.0001) >     1.9047, 1.9048, 1.9047, 1.9047, 1.9048, 1.9047, 1.9047, 1.9048,
(PID.TID 0000.0001) >     1.9047, 1.9047, 1.9047, 1.9047, 1.9048, 1.9047, 1.9047, 1.9047,
(PID.TID 0000.0001) >     1.9047, 1.9047, 1.9047, 1.9047, 1.9047, 1.9047, 1.9047, 1.9046,
(PID.TID 0000.0001) >     1.9047, 1.9046, 1.9046, 1.9046, 1.9046, 1.9045, 1.9045, 1.9044,
(PID.TID 0000.0001) >     1.9042, 1.9042, 1.9039, 1.9034, 1.9024, 1.9000, 1.8888, 1.8888,
(PID.TID 0000.0001) > swdown_nlon       = 192,
(PID.TID 0000.0001) > swdown_nlat       = 94,
(PID.TID 0000.0001) >#
(PID.TID 0000.0001) > lwdown_lon0       = 0.00D0,
(PID.TID 0000.0001) > lwdown_lon_inc    = 1.875D0,
(PID.TID 0000.0001) > lwdown_lat0       = -88.5420D0,
(PID.TID 0000.0001) > lwdown_lat_inc    = 1.8888, 1.9000, 1.9024, 1.9034, 1.9039, 1.9042,
(PID.TID 0000.0001) >     1.9042, 1.9044, 1.9045, 1.9045, 1.9046, 1.9046, 1.9046, 1.9046,
(PID.TID 0000.0001) >     1.9047, 1.9046, 1.9047, 1.9047, 1.9047, 1.9047, 1.9047, 1.9047,
(PID.TID 0000.0001) >     1.9047, 1.9047, 1.9047, 1.9047, 1.9048, 1.9047, 1.9047, 1.9047,
(PID.TID 0000.0001) >     1.9047, 1.9048, 1.9047, 1.9047, 1.9048, 1.9047, 1.9047, 1.9048,
(PID.TID 0000.0001) >     1.9047, 1.9047, 1.9048, 1.9047, 1.9047, 1.9048, 1.9047, 1.9047,
(PID.TID 0000.0001) >     1.9048, 1.9047, 1.9047, 1.9048, 1.9047, 1.9047, 1.9048, 1.9047,
(PID.TID 0000.0001) >     1.9047, 1.9048, 1.9047, 1.9047, 1.9048, 1.9047, 1.9047, 1.9048,
(PID.TID 0000.0001) >     1.9047, 1.9047, 1.9047, 1.9047, 1.9048, 1.9047, 1.9047, 1.9047,
(PID.TID 0000.0001) >     1.9047, 1.9047, 1.9047, 1.9047, 1.9047, 1.9047, 1.9047, 1.9046,
(PID.TID 0000.0001) >     1.9047, 1.9046, 1.9046, 1.9046, 1.9046, 1.9045, 1.9045, 1.9044,
(PID.TID 0000.0001) >     1.9042, 1.9042, 1.9039, 1.9034, 1.9024, 1.9000, 1.8888, 1.8888,
(PID.TID 0000.0001) > lwdown_nlon       = 192,
(PID.TID 0000.0001) > lwdown_nlat       = 94,
(PID.TID 0000.0001) >#
(PID.TID 0000.0001) > apressure_lon0       = 0.00D0,
(PID.TID 0000.0001) > apressure_lon_inc    = 1.875D0,
(PID.TID 0000.0001) > apressure_lat0       = -88.5420D0,
(PID.TID 0000.0001) > apressure_lat_inc    = 1.8888, 1.9000, 1.9024, 1.9034, 1.9039, 1.9042,
(PID.TID 0000.0001) >     1.9042, 1.9044, 1.9045, 1.9045, 1.9046, 1.9046, 1.9046, 1.9046,
(PID.TID 0000.0001) >     1.9047, 1.9046, 1.9047, 1.9047, 1.9047, 1.9047, 1.9047, 1.9047,
(PID.TID 0000.0001) >     1.9047, 1.9047, 1.9047, 1.9047, 1.9048, 1.9047, 1.9047, 1.9047,
(PID.TID 0000.0001) >     1.9047, 1.9048, 1.9047, 1.9047, 1.9048, 1.9047, 1.9047, 1.9048,
(PID.TID 0000.0001) >     1.9047, 1.9047, 1.9048, 1.9047, 1.9047, 1.9048, 1.9047, 1.9047,
(PID.TID 0000.0001) >     1.9048, 1.9047, 1.9047, 1.9048, 1.9047, 1.9047, 1.9048, 1.9047,
(PID.TID 0000.0001) >     1.9047, 1.9048, 1.9047, 1.9047, 1.9048, 1.9047, 1.9047, 1.9048,
(PID.TID 0000.0001) >     1.9047, 1.9047, 1.9047, 1.9047, 1.9048, 1.9047, 1.9047, 1.9047,
(PID.TID 0000.0001) >     1.9047, 1.9047, 1.9047, 1.9047, 1.9047, 1.9047, 1.9047, 1.9046,
(PID.TID 0000.0001) >     1.9047, 1.9046, 1.9046, 1.9046, 1.9046, 1.9045, 1.9045, 1.9044,
(PID.TID 0000.0001) >     1.9042, 1.9042, 1.9039, 1.9034, 1.9024, 1.9000, 1.8888, 1.8888,
(PID.TID 0000.0001) > apressure_nlon       = 192,
(PID.TID 0000.0001) > apressure_nlat       = 94,
(PID.TID 0000.0001) > /
(PID.TID 0000.0001) 
(PID.TID 0000.0001) EXF_READPARMS: reading EXF_NML_01
(PID.TID 0000.0001) EXF_READPARMS: reading EXF_NML_02
(PID.TID 0000.0001) EXF_READPARMS: reading EXF_NML_03
(PID.TID 0000.0001) EXF_READPARMS: reading EXF_NML_04
(PID.TID 0000.0001) EXF_READPARMS: finished reading data.exf
(PID.TID 0000.0001)  GGL90_READPARMS: opening data.ggl90
(PID.TID 0000.0001)  OPEN_COPY_DATA_FILE: opening file data.ggl90
(PID.TID 0000.0001) // =======================================================
(PID.TID 0000.0001) // Parameter file "data.ggl90"
(PID.TID 0000.0001) // =======================================================
(PID.TID 0000.0001) ># =====================================================================
(PID.TID 0000.0001) ># | Parameters for Gaspar et al. (1990)'s TKE vertical mixing scheme  |
(PID.TID 0000.0001) ># =====================================================================
(PID.TID 0000.0001) > &GGL90_PARM01
(PID.TID 0000.0001) ># GGL90taveFreq = 345600000.,
(PID.TID 0000.0001) ># GGL90dumpFreq = 86400.,
(PID.TID 0000.0001) ># GGL90writeState=.FALSE.,
(PID.TID 0000.0001) ># GGL90diffTKEh=3.e3,
(PID.TID 0000.0001) > GGL90alpha=30.,
(PID.TID 0000.0001) ># GGL90TKEFile = 'TKE_init.bin',
(PID.TID 0000.0001) > GGL90TKEmin  = 1.e-7,
(PID.TID 0000.0001) > GGL90TKEbottom = 1.e-6,
(PID.TID 0000.0001) > mxlMaxFlag =2,
(PID.TID 0000.0001) > mxlSurfFlag=.TRUE.,
(PID.TID 0000.0001) > /
(PID.TID 0000.0001) 
(PID.TID 0000.0001)  GGL90_READPARMS ; starts to read GGL90_PARM01
(PID.TID 0000.0001)  GGL90_READPARMS: read GGL90_PARM01 : OK
(PID.TID 0000.0001)  GGL90_READPARMS: finished reading data.ggl90
(PID.TID 0000.0001) // =======================================================
(PID.TID 0000.0001) // GGL90 configuration
(PID.TID 0000.0001) // =======================================================
(PID.TID 0000.0001) GGL90dumpFreq =   /* GGL90 state write out interval ( s ). */
(PID.TID 0000.0001)                 0.000000000000000E+00
(PID.TID 0000.0001)     ;
(PID.TID 0000.0001) GGL90taveFreq =   /* GGL90 averaging interval ( s ). */
(PID.TID 0000.0001)                 0.000000000000000E+00
(PID.TID 0000.0001)     ;
(PID.TID 0000.0001) GGL90mixingMAPS =   /* GGL90 IO flag. */
(PID.TID 0000.0001)                   F
(PID.TID 0000.0001)     ;
(PID.TID 0000.0001) GGL90writeState =   /* GGL90 IO flag. */
(PID.TID 0000.0001)                   F
(PID.TID 0000.0001)     ;
(PID.TID 0000.0001) GGL90ck =   /* GGL90 viscosity parameter. */
(PID.TID 0000.0001)                 1.000000000000000E-01
(PID.TID 0000.0001)     ;
(PID.TID 0000.0001) GGL90ceps =   /* GGL90 dissipation parameter. */
(PID.TID 0000.0001)                 7.000000000000000E-01
(PID.TID 0000.0001)     ;
(PID.TID 0000.0001) GGL90alpha =   /* GGL90 TKE diffusivity parameter. */
(PID.TID 0000.0001)                 3.000000000000000E+01
(PID.TID 0000.0001)     ;
(PID.TID 0000.0001) GGL90m2 =   /* GGL90 wind stress to vertical stress ratio. */
(PID.TID 0000.0001)                 3.750000000000000E+00
(PID.TID 0000.0001)     ;
(PID.TID 0000.0001) GGL90TKEmin =   /* GGL90 minimum kinetic energy ( m^2/s^2 ). */
(PID.TID 0000.0001)                 1.000000000000000E-07
(PID.TID 0000.0001)     ;
(PID.TID 0000.0001) GGL90TKEsurfMin =   /* GGL90 minimum surface kinetic energy ( m^2/s^2 ). */
(PID.TID 0000.0001)                 1.000000000000000E-04
(PID.TID 0000.0001)     ;
(PID.TID 0000.0001) GGL90TKEbottom =   /* GGL90 bottom kinetic energy ( m^2/s^2 ). */
(PID.TID 0000.0001)                 1.000000000000000E-06
(PID.TID 0000.0001)     ;
(PID.TID 0000.0001) GGL90viscMax =   /* GGL90 upper limit for viscosity ( m^2/s ). */
(PID.TID 0000.0001)                 1.000000000000000E+02
(PID.TID 0000.0001)     ;
(PID.TID 0000.0001) GGL90diffMax =   /* GGL90 upper limit for diffusivity ( m^2/s ). */
(PID.TID 0000.0001)                 1.000000000000000E+02
(PID.TID 0000.0001)     ;
(PID.TID 0000.0001) GGL90diffTKEh =   /* GGL90 horizontal diffusivity for TKE ( m^2/s ). */
(PID.TID 0000.0001)                 0.000000000000000E+00
(PID.TID 0000.0001)     ;
(PID.TID 0000.0001) GGL90mixingLengthMin =   /* GGL90 minimum mixing length ( m ). */
(PID.TID 0000.0001)                 1.000000000000000E-08
(PID.TID 0000.0001)     ;
(PID.TID 0000.0001) mxlMaxFlag =   /* Flag for limiting mixing-length method */
(PID.TID 0000.0001)                       2
(PID.TID 0000.0001)     ;
(PID.TID 0000.0001) mxlSurfFlag =   /* GGL90 flag for near surface mixing. */
(PID.TID 0000.0001)                   T
(PID.TID 0000.0001)     ;
(PID.TID 0000.0001) calcMeanVertShear = /* calc Mean of Vert.Shear (vs shear of Mean flow) */
(PID.TID 0000.0001)                   F
(PID.TID 0000.0001)     ;
(PID.TID 0000.0001) GGL90: GGL90TKEFile =
(PID.TID 0000.0001) GGL90writeState =   /* GGL90 Boundary condition flag. */
(PID.TID 0000.0001)                   T
(PID.TID 0000.0001)     ;
(PID.TID 0000.0001) // =======================================================
(PID.TID 0000.0001) // End of GGL90 config. summary
(PID.TID 0000.0001) // =======================================================
(PID.TID 0000.0001) 
(PID.TID 0000.0001)  GM_READPARMS: opening data.gmredi
(PID.TID 0000.0001)  OPEN_COPY_DATA_FILE: opening file data.gmredi
(PID.TID 0000.0001) // =======================================================
(PID.TID 0000.0001) // Parameter file "data.gmredi"
(PID.TID 0000.0001) // =======================================================
(PID.TID 0000.0001) ># GM+Redi package parameters:
(PID.TID 0000.0001) >#     GM_Small_Number  :: epsilon used in computing the slope
(PID.TID 0000.0001) >#     GM_slopeSqCutoff :: slope^2 cut-off value
(PID.TID 0000.0001) >
(PID.TID 0000.0001) >#-from MOM :
(PID.TID 0000.0001) ># GM_background_K: 	G & Mc.W  diffusion coefficient
(PID.TID 0000.0001) ># GM_maxSlope    :	max slope of isopycnals
(PID.TID 0000.0001) ># GM_Scrit       :	transition for scaling diffusion coefficient
(PID.TID 0000.0001) ># GM_Sd          :	half width scaling for diffusion coefficient
(PID.TID 0000.0001) ># GM_taper_scheme:	slope clipping or one of the tapering schemes
(PID.TID 0000.0001) ># GM_Kmin_horiz  :	horizontal diffusion minimum value
(PID.TID 0000.0001) >
(PID.TID 0000.0001) >#-Option parameters (needs to "define" options in GMREDI_OPTIONS.h")
(PID.TID 0000.0001) ># GM_isopycK     :	isopycnal diffusion coefficient (default=GM_background_K)
(PID.TID 0000.0001) ># GM_AdvForm     :	turn on GM Advective form       (default=Skew flux form)
(PID.TID 0000.0001) >
(PID.TID 0000.0001) > &GM_PARM01
(PID.TID 0000.0001) >  GM_Small_Number  = 1.D-20,
(PID.TID 0000.0001) >  GM_slopeSqCutoff = 1.D+08,
(PID.TID 0000.0001) >  GM_AdvForm         = .TRUE.,
(PID.TID 0000.0001) >  GM_isopycK         = 1.D+3,
(PID.TID 0000.0001) >  GM_background_K    = 1.D+3,
(PID.TID 0000.0001) >  GM_maxSlope        = 4.D-3,
(PID.TID 0000.0001) >  GM_taper_scheme    = 'stableGmAdjTap',
(PID.TID 0000.0001) >  GM_Kmin_horiz      = 100.,
(PID.TID 0000.0001) >  GM_Scrit           = 4.D-3,
(PID.TID 0000.0001) >  GM_Sd              = 1.D-3,
(PID.TID 0000.0001) >#
(PID.TID 0000.0001) >###  GM_Visbeck_alpha   = 1.5D-2,
(PID.TID 0000.0001) >###  GM_Visbeck_alpha   = 0.D0,
(PID.TID 0000.0001) >###  GM_Visbeck_length  = 2.D+5,
(PID.TID 0000.0001) >###  GM_Visbeck_depth   = 1.D+3,
(PID.TID 0000.0001) >###  GM_Visbeck_maxval_K= 2.5D+3,
(PID.TID 0000.0001) > /
(PID.TID 0000.0001) >
(PID.TID 0000.0001) >
(PID.TID 0000.0001) 
(PID.TID 0000.0001)  GM_READPARMS: finished reading data.gmredi
(PID.TID 0000.0001) 
(PID.TID 0000.0001)  SEAICE_READPARMS: opening data.seaice
(PID.TID 0000.0001)  OPEN_COPY_DATA_FILE: opening file data.seaice
(PID.TID 0000.0001) // =======================================================
(PID.TID 0000.0001) // Parameter file "data.seaice"
(PID.TID 0000.0001) // =======================================================
(PID.TID 0000.0001) ># SEAICE parameters
(PID.TID 0000.0001) > &SEAICE_PARM01
(PID.TID 0000.0001) >#here I take the fields from pickup.seaice.previous.data that
(PID.TID 0000.0001) >#came out of experiment 2 ("relax") part 4 to initialize part 5
(PID.TID 0000.0001) >      AreaFile='siAREA.ini',
(PID.TID 0000.0001) >      HeffFile='siHEFF.ini',
(PID.TID 0000.0001) >      HsnowFile='siHSNOW.ini',
(PID.TID 0000.0001) >      uIceFile='siUICE.ini',
(PID.TID 0000.0001) >      vIceFile='siVICE.ini',
(PID.TID 0000.0001) >#the following is needed to recover old default values
(PID.TID 0000.0001) >#since PR116 (https://github.com/MITgcm/MITgcm/pull/116)
(PID.TID 0000.0001) >      SEAICE_drag=0.002,
(PID.TID 0000.0001) >      SEAICE_waterDrag=0.005344995140913508357982664,
(PID.TID 0000.0001) >      SEAICEetaZmethod=0,
(PID.TID 0000.0001) >      SEAICEscaleSurfStress=.FALSE.,
(PID.TID 0000.0001) >      SEAICEaddSnowMass=.FALSE.,
(PID.TID 0000.0001) >      SEAICE_OLx=0,
(PID.TID 0000.0001) >      SEAICE_OLy=0,
(PID.TID 0000.0001) >#
(PID.TID 0000.0001) >      SEAICEuseTILT=.FALSE.,
(PID.TID 0000.0001) >      SEAICEpresH0=2.,
(PID.TID 0000.0001) >      SEAICEpresPow0=1,
(PID.TID 0000.0001) >      SEAICEpresPow1=1,
(PID.TID 0000.0001) >      SEAICE_strength = 2.25e4,
(PID.TID 0000.0001) >      SEAICE_multDim=1,
(PID.TID 0000.0001) >      SEAICErestoreUnderIce=.TRUE.,
(PID.TID 0000.0001) >      SEAICE_area_max=0.97,
(PID.TID 0000.0001) >      SEAICE_salt0=4.,
(PID.TID 0000.0001) >      LSR_ERROR          = 2.e-4,
(PID.TID 0000.0001) >      SEAICEuseDYNAMICS  = .TRUE.,
(PID.TID 0000.0001) >      MIN_ATEMP          = -40.,
(PID.TID 0000.0001) >      MIN_TICE           = -40.,
(PID.TID 0000.0001) >      SEAICEadvScheme    = 30,
(PID.TID 0000.0001) >      SEAICEuseFluxForm = .TRUE.,
(PID.TID 0000.0001) >      SEAICEadvSnow      = .TRUE.,
(PID.TID 0000.0001) >#      SEAICEadvSalt      = .TRUE.,
(PID.TID 0000.0001) >      SEAICEdiffKhHeff   = 400.,
(PID.TID 0000.0001) >      SEAICEdiffKhArea   = 400.,
(PID.TID 0000.0001) >      SEAICEdiffKhSnow   = 400.,
(PID.TID 0000.0001) >#      SEAICEdiffKhSalt   = 400.,
(PID.TID 0000.0001) >      SEAICEuseFlooding  = .TRUE.,
(PID.TID 0000.0001) >      SEAICE_mcPheePiston= 3.858024691358025E-05,
(PID.TID 0000.0001) >      SEAICE_frazilFrac  = 1.,
(PID.TID 0000.0001) >      SEAICE_mcPheeTaper = 0.,
(PID.TID 0000.0001) >      SEAICE_areaLossFormula=2,
(PID.TID 0000.0001) >      SEAICEheatConsFix  = .TRUE.,
(PID.TID 0000.0001) >      SEAICE_tempFrz0    = -1.96,
(PID.TID 0000.0001) >      SEAICE_dTempFrz_dS = 0.,
(PID.TID 0000.0001) >      SEAICEuseMetricTerms = .TRUE.,
(PID.TID 0000.0001) >      SEAICE_no_slip     = .TRUE.,
(PID.TID 0000.0001) >      SEAICE_clipVelocities = .TRUE.,
(PID.TID 0000.0001) > /
(PID.TID 0000.0001) >#
(PID.TID 0000.0001) > &SEAICE_PARM02
(PID.TID 0000.0001) > /
(PID.TID 0000.0001) >
(PID.TID 0000.0001) 
(PID.TID 0000.0001)  SEAICE_READPARMS: finished reading data.seaice
(PID.TID 0000.0001) SALT_PLUME_READPARMS: opening data.salt_plume
(PID.TID 0000.0001)  OPEN_COPY_DATA_FILE: opening file data.salt_plume
(PID.TID 0000.0001) // =======================================================
(PID.TID 0000.0001) // Parameter file "data.salt_plume"
(PID.TID 0000.0001) // =======================================================
(PID.TID 0000.0001) > &SALT_PLUME_PARM01
(PID.TID 0000.0001) ># SaltPlumeCriterion = 0.4D0,
(PID.TID 0000.0001) > SPsalFRAC= 0.5D0,
(PID.TID 0000.0001) >#SPsalFRAC= 0.25D0,
(PID.TID 0000.0001) >#SPsalFRAC= 0.0D0,
(PID.TID 0000.0001) > /
(PID.TID 0000.0001) 
(PID.TID 0000.0001) SALT_PLUME_READPARMS: finished reading data.salt_plume
(PID.TID 0000.0001) AUTODIFF_READPARMS: opening data.autodiff
(PID.TID 0000.0001)  OPEN_COPY_DATA_FILE: opening file data.autodiff
(PID.TID 0000.0001) // =======================================================
(PID.TID 0000.0001) // Parameter file "data.autodiff"
(PID.TID 0000.0001) // =======================================================
(PID.TID 0000.0001) ># =========================
(PID.TID 0000.0001) ># pkg AUTODIFF parameters :
(PID.TID 0000.0001) ># =========================
(PID.TID 0000.0001) >#  inAdExact :: get an exact adjoint (no approximation) (def=.True.)
(PID.TID 0000.0001) >#
(PID.TID 0000.0001) > &AUTODIFF_PARM01
(PID.TID 0000.0001) ># inAdExact = .FALSE.,
(PID.TID 0000.0001) ># useSEAICEinAdMode = .FALSE.,
(PID.TID 0000.0001) ># useKPPinAdMode = .FALSE.,
(PID.TID 0000.0001) ># useGMRediInAdMode = .FALSE.,
(PID.TID 0000.0001) > useGGL90inAdMode = .FALSE.,
(PID.TID 0000.0001) > useSALT_PLUMEinAdMode = .FALSE.,
(PID.TID 0000.0001) > /
(PID.TID 0000.0001) 
(PID.TID 0000.0001) AUTODIFF_READPARMS: finished reading data.autodiff
(PID.TID 0000.0001) // ===================================
(PID.TID 0000.0001) // AUTODIFF parameters :
(PID.TID 0000.0001) // ===================================
(PID.TID 0000.0001) inAdExact = /* get an exact adjoint (no approximation) */
(PID.TID 0000.0001)                   T
(PID.TID 0000.0001)     ;
(PID.TID 0000.0001) useKPPinAdMode = /* use KPP in adjoint mode */
(PID.TID 0000.0001)                   F
(PID.TID 0000.0001)     ;
(PID.TID 0000.0001) useGMRediInAdMode = /* use GMRedi in adjoint mode */
(PID.TID 0000.0001)                   T
(PID.TID 0000.0001)     ;
(PID.TID 0000.0001) useSEAICEinAdMode = /* use SEAICE in adjoint mode */
(PID.TID 0000.0001)                   T
(PID.TID 0000.0001)     ;
(PID.TID 0000.0001) useGGL90inAdMode = /* use GGL90 in adjoint mode */
(PID.TID 0000.0001)                   F
(PID.TID 0000.0001)     ;
(PID.TID 0000.0001) useSALT_PLUMEinAdMode = /* use SALT_PLUME in adjoint mode */
(PID.TID 0000.0001)                   F
(PID.TID 0000.0001)     ;
(PID.TID 0000.0001) SEAICEuseDYNAMICSswitchInAd = /* switch On/Off SEAICE Dyn in AD mode */
(PID.TID 0000.0001)                   F
(PID.TID 0000.0001)     ;
(PID.TID 0000.0001) SEAICEuseFREEDRIFTswitchInAd= /* switch On/Off Free-Drift in AD mode */
(PID.TID 0000.0001)                   F
(PID.TID 0000.0001)     ;
(PID.TID 0000.0001) SEAICEapproxLevInAd = /* -1:SEAICE_FAKE, >0:other adjoint approximation */
(PID.TID 0000.0001)                       0
(PID.TID 0000.0001)     ;
(PID.TID 0000.0001) dumpAdVarExch = /* control adexch before dumpinp */
(PID.TID 0000.0001)                       2
(PID.TID 0000.0001)     ;
(PID.TID 0000.0001) mon_AdVarExch = /* control adexch before monitor */
(PID.TID 0000.0001)                       2
(PID.TID 0000.0001)     ;
(PID.TID 0000.0001) viscFacInFw = /* viscosity factor for forward model */
(PID.TID 0000.0001)                 1.000000000000000E+00
(PID.TID 0000.0001)     ;
(PID.TID 0000.0001) viscFacInAd = /* viscosity factor for adjoint */
(PID.TID 0000.0001)                 1.000000000000000E+00
(PID.TID 0000.0001)     ;
(PID.TID 0000.0001) SIregFacInAd = /* sea ice factor for adjoint model */
(PID.TID 0000.0001)                 1.234567000000000E+05
(PID.TID 0000.0001)     ;
(PID.TID 0000.0001) SIregFacInFw = /* sea ice factor for forward model */
(PID.TID 0000.0001)                 1.234567000000000E+05
(PID.TID 0000.0001)     ;
(PID.TID 0000.0001) 
(PID.TID 0000.0001) OPTIM_READPARMS: opening data.optim
(PID.TID 0000.0001)  OPEN_COPY_DATA_FILE: opening file data.optim
(PID.TID 0000.0001) // =======================================================
(PID.TID 0000.0001) // Parameter file "data.optim"
(PID.TID 0000.0001) // =======================================================
(PID.TID 0000.0001) >#
(PID.TID 0000.0001) ># ********************************
(PID.TID 0000.0001) ># Off-line optimization parameters
(PID.TID 0000.0001) ># ********************************
(PID.TID 0000.0001) > &OPTIM
(PID.TID 0000.0001) > optimcycle=0,
(PID.TID 0000.0001) > /
(PID.TID 0000.0001) 
(PID.TID 0000.0001) OPTIM_READPARMS: finished reading data.optim
(PID.TID 0000.0001) CTRL_READPARMS: opening data.ctrl
(PID.TID 0000.0001)  OPEN_COPY_DATA_FILE: opening file data.ctrl
(PID.TID 0000.0001) // =======================================================
(PID.TID 0000.0001) // Parameter file "data.ctrl"
(PID.TID 0000.0001) // =======================================================
(PID.TID 0000.0001) ># **********************
(PID.TID 0000.0001) ># ECCO control variables
(PID.TID 0000.0001) ># **********************
(PID.TID 0000.0001) > &ctrl_nml
(PID.TID 0000.0001) > doSinglePrecTapelev=.TRUE.,
(PID.TID 0000.0001) > ctrlSmoothCorrel2D=.TRUE.,
(PID.TID 0000.0001) > ctrlSmoothCorrel3D=.FALSE.,
(PID.TID 0000.0001) > /
(PID.TID 0000.0001) >#
(PID.TID 0000.0001) ># *********************
(PID.TID 0000.0001) ># names for ctrl_pack/unpack
(PID.TID 0000.0001) ># *********************
(PID.TID 0000.0001) > &ctrl_packnames
(PID.TID 0000.0001) > /
(PID.TID 0000.0001) >#
(PID.TID 0000.0001) ># *********************
(PID.TID 0000.0001) ># names for CTRL_GENARR2D,3D CTRL_GENTIM2D
(PID.TID 0000.0001) ># *********************
(PID.TID 0000.0001) > &CTRL_NML_GENARR
(PID.TID 0000.0001) > xx_gentim2d_weight(1) = 'wt_atemp.data',
(PID.TID 0000.0001) > xx_gentim2d_file(1)='xx_atempA',
(PID.TID 0000.0001) > xx_gentim2d_period(1)=7200.0,
(PID.TID 0000.0001) > xx_gentim2d_preproc(1,1)='docycle',
(PID.TID 0000.0001) > xx_gentim2d_preproc_i(1,1)=1,
(PID.TID 0000.0001) > xx_gentim2d_preproc(2,1)='WC01',
(PID.TID 0000.0001) > mult_gentim2d(1) = 0.,
(PID.TID 0000.0001) >#
(PID.TID 0000.0001) > xx_gentim2d_weight(2) = 'wt_atemp.data',
(PID.TID 0000.0001) > xx_gentim2d_file(2)='xx_atempB',
(PID.TID 0000.0001) > xx_gentim2d_period(2)=7200.0,
(PID.TID 0000.0001) > xx_gentim2d_preproc(1,2)='docycle',
(PID.TID 0000.0001) > xx_gentim2d_preproc_i(1,2)=2,
(PID.TID 0000.0001) > xx_gentim2d_preproc(2,2)='rmcycle',
(PID.TID 0000.0001) > xx_gentim2d_preproc_i(2,2)=1,
(PID.TID 0000.0001) > xx_gentim2d_preproc(3,2)='WC01',
(PID.TID 0000.0001) > mult_gentim2d(2) = 0.,
(PID.TID 0000.0001) >#
(PID.TID 0000.0001) > xx_gentim2d_weight(3) = 'wt_atemp.data',
(PID.TID 0000.0001) > xx_gentim2d_file(3)='xx_atempC',
(PID.TID 0000.0001) > xx_gentim2d_period(3)=7200.0,
(PID.TID 0000.0001) > xx_gentim2d_preproc(1,3)='rmcycle',
(PID.TID 0000.0001) > xx_gentim2d_preproc_i(1,3)=2,
(PID.TID 0000.0001) > xx_gentim2d_preproc(2,3)='WC01',
(PID.TID 0000.0001) > mult_gentim2d(3) = 0.,
(PID.TID 0000.0001) >#
(PID.TID 0000.0001) > xx_gentim2d_weight(4) = 'wt_ones.bin',
(PID.TID 0000.0001) > xx_gentim2d_file(4)='xx_hflux',
(PID.TID 0000.0001) > xx_gentim2d_period(4)=7200.0,
(PID.TID 0000.0001) > mult_gentim2d(4) = 0.,
(PID.TID 0000.0001) >#
(PID.TID 0000.0001) > xx_gentim2d_weight(5) = 'wt_ones.bin',
(PID.TID 0000.0001) > xx_gentim2d_file(5)='xx_sflux',
(PID.TID 0000.0001) > xx_gentim2d_period(5)=7200.0,
(PID.TID 0000.0001) > mult_gentim2d(5) = 0.,
(PID.TID 0000.0001) >#
(PID.TID 0000.0001) > xx_genarr3d_weight(1) = 'wt_theta.data',
(PID.TID 0000.0001) > xx_genarr3d_file(1)='xx_theta',
(PID.TID 0000.0001) > xx_genarr3d_bounds(1:5,1)=-2.0,-1.9,39.,40.,0.,
(PID.TID 0000.0001) > mult_genarr3d(1) = 0.,
(PID.TID 0000.0001) >#
(PID.TID 0000.0001) > xx_genarr3d_weight(2) = 'wt_salt.data',
(PID.TID 0000.0001) > xx_genarr3d_file(2)='xx_salt',
(PID.TID 0000.0001) > xx_genarr3d_bounds(1:5,2)=29.,29.5,40.5,41.,0.,
(PID.TID 0000.0001) > mult_genarr3d(2) = 0.,
(PID.TID 0000.0001) >#
(PID.TID 0000.0001) > xx_genarr3d_weight(3) = 'wt_kapgm.data',
(PID.TID 0000.0001) > xx_genarr3d_file(3)='xx_kapgm',
(PID.TID 0000.0001) > xx_genarr3d_bounds(1:5,3)=1.E2,2.E2,0.9E4,1.E4,0.,
(PID.TID 0000.0001) > mult_genarr3d(3) = 0.,
(PID.TID 0000.0001) >#
(PID.TID 0000.0001) > /
(PID.TID 0000.0001) >
(PID.TID 0000.0001) 
(PID.TID 0000.0001) CTRL_READPARMS: finished reading data.ctrl
(PID.TID 0000.0001) COST_READPARMS: opening data.cost
(PID.TID 0000.0001)  OPEN_COPY_DATA_FILE: opening file data.cost
(PID.TID 0000.0001) // =======================================================
(PID.TID 0000.0001) // Parameter file "data.cost"
(PID.TID 0000.0001) // =======================================================
(PID.TID 0000.0001) >#
(PID.TID 0000.0001) >#
(PID.TID 0000.0001) ># ******************
(PID.TID 0000.0001) ># cost function
(PID.TID 0000.0001) ># ******************
(PID.TID 0000.0001) > &COST_NML
(PID.TID 0000.0001) > /
(PID.TID 0000.0001) 
(PID.TID 0000.0001) COST_READPARMS: finished reading data.cost
(PID.TID 0000.0001) GRDCHK_READPARMS: opening data.grdchk
(PID.TID 0000.0001)  OPEN_COPY_DATA_FILE: opening file data.grdchk
(PID.TID 0000.0001) // =======================================================
(PID.TID 0000.0001) // Parameter file "data.grdchk"
(PID.TID 0000.0001) // =======================================================
(PID.TID 0000.0001) ># *******************
(PID.TID 0000.0001) ># ECCO gradient check
(PID.TID 0000.0001) ># *******************
(PID.TID 0000.0001) > &GRDCHK_NML
(PID.TID 0000.0001) > grdchk_eps       = 1.d-2,
(PID.TID 0000.0001) >#  iglopos         = 6,
(PID.TID 0000.0001) >#  jglopos         = 17,
(PID.TID 0000.0001) >#  kglopos         = 1,
(PID.TID 0000.0001) > nbeg             = 1,
(PID.TID 0000.0001) > nstep            = 1,
(PID.TID 0000.0001) > nend             = 4,
(PID.TID 0000.0001) > grdchkvarindex   = 301,
(PID.TID 0000.0001) > /
(PID.TID 0000.0001) 
(PID.TID 0000.0001) GRDCHK_READPARMS: finished reading data.grdchk
(PID.TID 0000.0001) 
(PID.TID 0000.0001) // =======================================================
(PID.TID 0000.0001) // Gradient check configuration  >>> START <<<
(PID.TID 0000.0001) // =======================================================
(PID.TID 0000.0001) 
(PID.TID 0000.0001)   grdchkvarindex :                        301
(PID.TID 0000.0001)   eps:                              0.100E-01
(PID.TID 0000.0001)   First location:                           1
(PID.TID 0000.0001)   Last location:                            4
(PID.TID 0000.0001)   Increment:                                1
(PID.TID 0000.0001)   grdchkWhichProc:                          0
(PID.TID 0000.0001)   iLocTile =       1  ,    jLocTile =       1
(PID.TID 0000.0001) 
(PID.TID 0000.0001) // =======================================================
(PID.TID 0000.0001) // Gradient check configuration  >>> END <<<
(PID.TID 0000.0001) // =======================================================
(PID.TID 0000.0001) 
(PID.TID 0000.0001) SMOOTH_READPARMS: opening data.smooth
(PID.TID 0000.0001)  OPEN_COPY_DATA_FILE: opening file data.smooth
(PID.TID 0000.0001) // =======================================================
(PID.TID 0000.0001) // Parameter file "data.smooth"
(PID.TID 0000.0001) // =======================================================
(PID.TID 0000.0001) > &SMOOTH_NML
(PID.TID 0000.0001) ># caution : if you edit this file you may
(PID.TID 0000.0001) ># need to replace smooth2*norm001 accordingly
(PID.TID 0000.0001) > smooth2Dnbt(1)=30
(PID.TID 0000.0001) > smooth2Dtype(1)=1
(PID.TID 0000.0001) > smooth2Dsize(1)=2
(PID.TID 0000.0001) > smooth2Dfilter(1)=0
(PID.TID 0000.0001) > smooth3Dnbt(1)=30
(PID.TID 0000.0001) > smooth3DtypeH(1)=1
(PID.TID 0000.0001) > smooth3DsizeH(1)=3
(PID.TID 0000.0001) > smooth3DtypeZ(1)=1
(PID.TID 0000.0001) > smooth3DsizeZ(1)=3
(PID.TID 0000.0001) > smooth3Dfilter(1)=0
(PID.TID 0000.0001) > /
(PID.TID 0000.0001) 
(PID.TID 0000.0001) SMOOTH_READPARMS: finished reading data.smooth
(PID.TID 0000.0001) // =======================================================
(PID.TID 0000.0001) // pkg/smooth configuration
(PID.TID 0000.0001) // =======================================================
(PID.TID 0000.0001) smooth 2D parameters:  1    30    0.    0.
(PID.TID 0000.0001) smooth 3D parameters:  1    30    0.    0.    0.
(PID.TID 0000.0001) // =======================================================
(PID.TID 0000.0001) // End of pkg/smooth config. summary
(PID.TID 0000.0001) // =======================================================
(PID.TID 0000.0001) 
(PID.TID 0000.0001) ECCO_READPARMS: opening data.ecco
(PID.TID 0000.0001)  OPEN_COPY_DATA_FILE: opening file data.ecco
(PID.TID 0000.0001) // =======================================================
(PID.TID 0000.0001) // Parameter file "data.ecco"
(PID.TID 0000.0001) // =======================================================
(PID.TID 0000.0001) ># *******************
(PID.TID 0000.0001) ># ECCO cost functions
(PID.TID 0000.0001) ># *******************
(PID.TID 0000.0001) > &ECCO_COST_NML
(PID.TID 0000.0001) > /
(PID.TID 0000.0001) ># ***************************
(PID.TID 0000.0001) ># ECCO generic cost functions
(PID.TID 0000.0001) ># ***************************
(PID.TID 0000.0001) > &ECCO_GENCOST_NML
(PID.TID 0000.0001) > gencost_avgperiod(1)  = 'step',
(PID.TID 0000.0001) > gencost_barfile(1) = 'm_boxmean_theta',
(PID.TID 0000.0001) > gencost_mask(1) = 'south30_mask',
(PID.TID 0000.0001) > gencost_name(1) = 'south30_mean_theta',
(PID.TID 0000.0001) > gencost_outputlevel(1)=1,
(PID.TID 0000.0001) > mult_gencost(1) = 1.D+07,
(PID.TID 0000.0001) >#
(PID.TID 0000.0001) > gencost_avgperiod(2)  = 'step',
(PID.TID 0000.0001) > gencost_barfile(2) = 'm_horflux_vol',
(PID.TID 0000.0001) > gencost_mask(2) = 'north10_mask',
(PID.TID 0000.0001) > gencost_name(2) = 'north10_flux_vol',
(PID.TID 0000.0001) > gencost_outputlevel(2)=1,
(PID.TID 0000.0001) > mult_gencost(2) = 1.,
(PID.TID 0000.0001) >#
(PID.TID 0000.0001) > gencost_avgperiod(3)  = 'step',
(PID.TID 0000.0001) > gencost_barfile(3) = 'm_trVol_step',
(PID.TID 0000.0001) > gencost_mask(3) = 'north10_mask',
(PID.TID 0000.0001) > gencost_name(3) = 'moc_north10',
(PID.TID 0000.0001) > gencost_outputlevel(3)=1,
(PID.TID 0000.0001) > mult_gencost(3) = 1.,
(PID.TID 0000.0001) >#
(PID.TID 0000.0001) > /
(PID.TID 0000.0001) >#
(PID.TID 0000.0001) 
(PID.TID 0000.0001) ECCO_READPARMS: finished reading #1: ecco_cost_nml
(PID.TID 0000.0001) ECCO_READPARMS: finished reading #2: ecco_gencost_nml
(PID.TID 0000.0001) gencost k_boxmean/horflux=  1 south30_mean_theta:     T
(PID.TID 0000.0001) gencost k_boxmean/horflux=  2 north10_flux_vol:     T
(PID.TID 0000.0001) gencost k_moc= 3moc_north10:     T
(PID.TID 0000.0001) ECCO_READPARMS: done
(PID.TID 0000.0001) PROFILES_READPARMS: opening data.profiles
(PID.TID 0000.0001)  OPEN_COPY_DATA_FILE: opening file data.profiles
(PID.TID 0000.0001) // =======================================================
(PID.TID 0000.0001) // Parameter file "data.profiles"
(PID.TID 0000.0001) // =======================================================
(PID.TID 0000.0001) >#
(PID.TID 0000.0001) ># ******************
(PID.TID 0000.0001) ># PROFILES cost function
(PID.TID 0000.0001) ># ******************
(PID.TID 0000.0001) > &PROFILES_NML
(PID.TID 0000.0001) > profilesDoGenGrid=.TRUE.,
(PID.TID 0000.0001) > profilesDir='profiles',
(PID.TID 0000.0001) >#
(PID.TID 0000.0001) >#
(PID.TID 0000.0001) > /
(PID.TID 0000.0001) 
(PID.TID 0000.0001) PROFILES_READPARMS: finished reading data.profiles
(PID.TID 0000.0001) SET_PARMS: done
==> SYSTEM CALL (from AUTODIFF_INI_MODEL_IO): > mkdir -p tapes <
==> SYSTEM CALL (from PROFILES_INI_IO): > mkdir -p profiles <
(PID.TID 0000.0001) Enter INI_VERTICAL_GRID: setInterFDr=    T ; setCenterDr=    F
(PID.TID 0000.0001) tile:   1 ; Read from file grid_cs32.face001.bin
(PID.TID 0000.0001)   => xC yC dxF dyF rA xG yG dxV dyU rAz dxC dyC rAw rAs dxG dyG AngleCS AngleSN
(PID.TID 0000.0001) tile:   2 ; Read from file grid_cs32.face001.bin
(PID.TID 0000.0001)   => xC yC dxF dyF rA xG yG dxV dyU rAz dxC dyC rAw rAs dxG dyG AngleCS AngleSN
(PID.TID 0000.0001) tile:   3 ; Read from file grid_cs32.face001.bin
(PID.TID 0000.0001)   => xC yC dxF dyF rA xG yG dxV dyU rAz dxC dyC rAw rAs dxG dyG AngleCS AngleSN
(PID.TID 0000.0001) %MON XC_max                       =   1.7854351589505E+02
(PID.TID 0000.0001) %MON XC_min                       =  -1.7854351589505E+02
(PID.TID 0000.0001) %MON XC_mean                      =   2.0724163126336E-15
(PID.TID 0000.0001) %MON XC_sd                        =   1.0355545336287E+02
(PID.TID 0000.0001) %MON XG_max                       =   1.8000000000000E+02
(PID.TID 0000.0001) %MON XG_min                       =  -1.7708797161002E+02
(PID.TID 0000.0001) %MON XG_mean                      =   1.8603515625000E+00
(PID.TID 0000.0001) %MON XG_sd                        =   1.0357130300504E+02
(PID.TID 0000.0001) %MON DXC_max                      =   3.2375185836900E+05
(PID.TID 0000.0001) %MON DXC_min                      =   1.1142031410131E+05
(PID.TID 0000.0001) %MON DXC_mean                     =   2.8605689051214E+05
(PID.TID 0000.0001) %MON DXC_sd                       =   3.4042087138252E+04
(PID.TID 0000.0001) %MON DXF_max                      =   3.2369947500827E+05
(PID.TID 0000.0001) %MON DXF_min                      =   1.2020820513318E+05
(PID.TID 0000.0001) %MON DXF_mean                     =   2.8605437324820E+05
(PID.TID 0000.0001) %MON DXF_sd                       =   3.4050524252539E+04
(PID.TID 0000.0001) %MON DXG_max                      =   3.2375195872773E+05
(PID.TID 0000.0001) %MON DXG_min                      =   1.0098378008791E+05
(PID.TID 0000.0001) %MON DXG_mean                     =   2.8603818508931E+05
(PID.TID 0000.0001) %MON DXG_sd                       =   3.4140406908005E+04
(PID.TID 0000.0001) %MON DXV_max                      =   3.2380418162750E+05
(PID.TID 0000.0001) %MON DXV_min                      =   8.0152299824136E+04
(PID.TID 0000.0001) %MON DXV_mean                     =   2.8603970633619E+05
(PID.TID 0000.0001) %MON DXV_sd                       =   3.4145142117723E+04
(PID.TID 0000.0001) %MON YC_max                       =   8.7940663871962E+01
(PID.TID 0000.0001) %MON YC_min                       =  -8.7940663871962E+01
(PID.TID 0000.0001) %MON YC_mean                      =   1.1842378929335E-15
(PID.TID 0000.0001) %MON YC_sd                        =   3.8676242969072E+01
(PID.TID 0000.0001) %MON YG_max                       =   9.0000000000000E+01
(PID.TID 0000.0001) %MON YG_min                       =  -9.0000000000000E+01
(PID.TID 0000.0001) %MON YG_mean                      =   2.9605947323338E-15
(PID.TID 0000.0001) %MON YG_sd                        =   3.8676895860710E+01
(PID.TID 0000.0001) %MON DYC_max                      =   3.2375185836900E+05
(PID.TID 0000.0001) %MON DYC_min                      =   1.1142031410131E+05
(PID.TID 0000.0001) %MON DYC_mean                     =   2.8605689051214E+05
(PID.TID 0000.0001) %MON DYC_sd                       =   3.4042087138252E+04
(PID.TID 0000.0001) %MON DYF_max                      =   3.2369947500827E+05
(PID.TID 0000.0001) %MON DYF_min                      =   1.2020820513318E+05
(PID.TID 0000.0001) %MON DYF_mean                     =   2.8605437324820E+05
(PID.TID 0000.0001) %MON DYF_sd                       =   3.4050524252539E+04
(PID.TID 0000.0001) %MON DYG_max                      =   3.2375195872773E+05
(PID.TID 0000.0001) %MON DYG_min                      =   1.0098378008791E+05
(PID.TID 0000.0001) %MON DYG_mean                     =   2.8603818508931E+05
(PID.TID 0000.0001) %MON DYG_sd                       =   3.4140406908005E+04
(PID.TID 0000.0001) %MON DYU_max                      =   3.2380418162750E+05
(PID.TID 0000.0001) %MON DYU_min                      =   8.0152299824136E+04
(PID.TID 0000.0001) %MON DYU_mean                     =   2.8603970633619E+05
(PID.TID 0000.0001) %MON DYU_sd                       =   3.4145142117723E+04
(PID.TID 0000.0001) %MON RA_max                       =   1.0479260248419E+11
(PID.TID 0000.0001) %MON RA_min                       =   1.4019007022556E+10
(PID.TID 0000.0001) %MON RA_mean                      =   8.2992246709265E+10
(PID.TID 0000.0001) %MON RA_sd                        =   1.7509089299457E+10
(PID.TID 0000.0001) %MON RAW_max                      =   1.0480965274559E+11
(PID.TID 0000.0001) %MON RAW_min                      =   1.2166903467143E+10
(PID.TID 0000.0001) %MON RAW_mean                     =   8.2992246709235E+10
(PID.TID 0000.0001) %MON RAW_sd                       =   1.7481917919656E+10
(PID.TID 0000.0001) %MON RAS_max                      =   1.0480965274559E+11
(PID.TID 0000.0001) %MON RAS_min                      =   1.2166903467143E+10
(PID.TID 0000.0001) %MON RAS_mean                     =   8.2992246709235E+10
(PID.TID 0000.0001) %MON RAS_sd                       =   1.7481917919656E+10
(PID.TID 0000.0001) %MON RAZ_max                      =   1.0484349334619E+11
(PID.TID 0000.0001) %MON RAZ_min                      =   8.8317900612505E+09
(PID.TID 0000.0001) %MON RAZ_mean                     =   8.2992246709235E+10
(PID.TID 0000.0001) %MON RAZ_sd                       =   1.7482297311044E+10
(PID.TID 0000.0001) %MON AngleCS_max                  =   9.9999994756719E-01
(PID.TID 0000.0001) %MON AngleCS_min                  =  -9.9968286884824E-01
(PID.TID 0000.0001) %MON AngleCS_mean                 =   3.3078850405987E-01
(PID.TID 0000.0001) %MON AngleCS_sd                   =   6.2496317138039E-01
(PID.TID 0000.0001) %MON AngleSN_max                  =   9.9968286884824E-01
(PID.TID 0000.0001) %MON AngleSN_min                  =  -9.9999994756719E-01
(PID.TID 0000.0001) %MON AngleSN_mean                 =  -3.3078850405987E-01
(PID.TID 0000.0001) %MON AngleSN_sd                   =   6.2496317138039E-01
(PID.TID 0000.0001) 
(PID.TID 0000.0001) // =======================================================
(PID.TID 0000.0001) // Calendar configuration >>> START <<<
(PID.TID 0000.0001) // =======================================================
(PID.TID 0000.0001) 
(PID.TID 0000.0001) modelstart = /* Start time of the model integration [s] */
(PID.TID 0000.0001)                 0.000000000000000E+00
(PID.TID 0000.0001)     ;
(PID.TID 0000.0001) modelend  = /* End time of the model integration [s] */
(PID.TID 0000.0001)                 2.880000000000000E+04
(PID.TID 0000.0001)     ;
(PID.TID 0000.0001) modelStep = /* Time interval for a model forward step [s] */
(PID.TID 0000.0001)                 3.600000000000000E+03
(PID.TID 0000.0001)     ;
(PID.TID 0000.0001) usingGregorianCalendar= /* Calendar Type: Gregorian Calendar */
(PID.TID 0000.0001)                   T
(PID.TID 0000.0001)     ;
(PID.TID 0000.0001) usingJulianCalendar = /* Calendar Type: Julian Calendar */
(PID.TID 0000.0001)                   F
(PID.TID 0000.0001)     ;
(PID.TID 0000.0001) usingNoLeapYearCal  = /* Calendar Type: without Leap Year */
(PID.TID 0000.0001)                   F
(PID.TID 0000.0001)     ;
(PID.TID 0000.0001) usingModelCalendar  = /* Calendar Type: Model Calendar */
(PID.TID 0000.0001)                   F
(PID.TID 0000.0001)     ;
(PID.TID 0000.0001) modelStartDate YYYYMMDD = /* Model start date YYYY-MM-DD */
(PID.TID 0000.0001)                19480101
(PID.TID 0000.0001)     ;
(PID.TID 0000.0001)   modelStartDate HHMMSS = /* Model start date HH-MM-SS  */
(PID.TID 0000.0001)                  120000
(PID.TID 0000.0001)     ;
(PID.TID 0000.0001) modelEndDate   YYYYMMDD = /* Model end date YYYY-MM-DD */
(PID.TID 0000.0001)                19480101
(PID.TID 0000.0001)     ;
(PID.TID 0000.0001)   modelEndDate   HHMMSS = /* Model end date HH-MM-SS  */
(PID.TID 0000.0001)                  200000
(PID.TID 0000.0001)     ;
(PID.TID 0000.0001) intyears = /* Number of calendar years affected by the integration */
(PID.TID 0000.0001)                       1
(PID.TID 0000.0001)     ;
(PID.TID 0000.0001) intmonths= /* Number of calendar months affected by the integration */
(PID.TID 0000.0001)                       1
(PID.TID 0000.0001)     ;
(PID.TID 0000.0001) intdays = /* Number of calendar days affected by the integration */
(PID.TID 0000.0001)                       1
(PID.TID 0000.0001)     ;
(PID.TID 0000.0001) modelIter0 = /* Base timestep number  */
(PID.TID 0000.0001)                       0
(PID.TID 0000.0001)     ;
(PID.TID 0000.0001) modelIterEnd = /* Final timestep number  */
(PID.TID 0000.0001)                       8
(PID.TID 0000.0001)     ;
(PID.TID 0000.0001) modelIntSteps= /* Number of model timesteps  */
(PID.TID 0000.0001)                       8
(PID.TID 0000.0001)     ;
(PID.TID 0000.0001) 
(PID.TID 0000.0001) // =======================================================
(PID.TID 0000.0001) // Calendar configuration  >>> END <<<
(PID.TID 0000.0001) // =======================================================
(PID.TID 0000.0001) 
(PID.TID 0000.0001) GAD_INIT_FIXED: GAD_OlMinSize=  2  0  2
(PID.TID 0000.0001) 
(PID.TID 0000.0001) // ===================================
(PID.TID 0000.0001) // GAD parameters :
(PID.TID 0000.0001) // ===================================
(PID.TID 0000.0001) tempAdvScheme =   /* Temp. Horiz.Advection scheme selector */
(PID.TID 0000.0001)                      30
(PID.TID 0000.0001)     ;
(PID.TID 0000.0001) tempVertAdvScheme =   /* Temp. Vert. Advection scheme selector */
(PID.TID 0000.0001)                       3
(PID.TID 0000.0001)     ;
(PID.TID 0000.0001) tempMultiDimAdvec =   /* use Muti-Dim Advec method for Temp */
(PID.TID 0000.0001)                   T
(PID.TID 0000.0001)     ;
(PID.TID 0000.0001) tempSOM_Advection = /* use 2nd Order Moment Advection for Temp */
(PID.TID 0000.0001)                   F
(PID.TID 0000.0001)     ;
(PID.TID 0000.0001) AdamsBashforthGt = /* apply Adams-Bashforth extrapolation on Gt */
(PID.TID 0000.0001)                   F
(PID.TID 0000.0001)     ;
(PID.TID 0000.0001) AdamsBashforth_T = /* apply Adams-Bashforth extrapolation on Temp */
(PID.TID 0000.0001)                   F
(PID.TID 0000.0001)     ;
(PID.TID 0000.0001) saltAdvScheme =   /* Salt. Horiz.advection scheme selector */
(PID.TID 0000.0001)                      30
(PID.TID 0000.0001)     ;
(PID.TID 0000.0001) saltVertAdvScheme =   /* Salt. Vert. Advection scheme selector */
(PID.TID 0000.0001)                       3
(PID.TID 0000.0001)     ;
(PID.TID 0000.0001) saltMultiDimAdvec =   /* use Muti-Dim Advec method for Salt */
(PID.TID 0000.0001)                   T
(PID.TID 0000.0001)     ;
(PID.TID 0000.0001) saltSOM_Advection = /* use 2nd Order Moment Advection for Salt */
(PID.TID 0000.0001)                   F
(PID.TID 0000.0001)     ;
(PID.TID 0000.0001) AdamsBashforthGs = /* apply Adams-Bashforth extrapolation on Gs */
(PID.TID 0000.0001)                   F
(PID.TID 0000.0001)     ;
(PID.TID 0000.0001) AdamsBashforth_S = /* apply Adams-Bashforth extrapolation on Salt */
(PID.TID 0000.0001)                   F
(PID.TID 0000.0001)     ;
(PID.TID 0000.0001) // ===================================
(PID.TID 0000.0001) 
(PID.TID 0000.0001) // =======================================================
(PID.TID 0000.0001) // External forcing (EXF) configuration >>> START <<<
(PID.TID 0000.0001) // =======================================================
(PID.TID 0000.0001) 
(PID.TID 0000.0001)  EXF general parameters:
(PID.TID 0000.0001) 
(PID.TID 0000.0001) exf_iprec = /* exf file precision */
(PID.TID 0000.0001)                      32
(PID.TID 0000.0001)     ;
(PID.TID 0000.0001) useExfYearlyFields = /* add extension _YEAR to input file names */
(PID.TID 0000.0001)                   F
(PID.TID 0000.0001)     ;
(PID.TID 0000.0001) twoDigitYear = /* use 2-digit year extension */
(PID.TID 0000.0001)                   F
(PID.TID 0000.0001)     ;
(PID.TID 0000.0001) useExfCheckRange = /* check for fields range */
(PID.TID 0000.0001)                   F
(PID.TID 0000.0001)     ;
(PID.TID 0000.0001) exf_output_interp = /* output directly interpolation result */
(PID.TID 0000.0001)                   F
(PID.TID 0000.0001)     ;
(PID.TID 0000.0001) diags_opOceWeighted = /* weight flux diags by open-ocean fraction */
(PID.TID 0000.0001)                   T
(PID.TID 0000.0001)     ;
(PID.TID 0000.0001) exf_debugLev = /* select EXF-debug printing level */
(PID.TID 0000.0001)                       1
(PID.TID 0000.0001)     ;
(PID.TID 0000.0001) exf_monFreq  = /* EXF monitor frequency [ s ] */
(PID.TID 0000.0001)                 7.200000000000000E+03
(PID.TID 0000.0001)     ;
(PID.TID 0000.0001) repeatPeriod = /* period for cycling forcing dataset [ s ] */
(PID.TID 0000.0001)                 3.153600000000000E+07
(PID.TID 0000.0001)     ;
(PID.TID 0000.0001) climTempFreeze= /* Minimum climatological temperature [deg.C] */
(PID.TID 0000.0001)                -1.900000000000000E+00
(PID.TID 0000.0001)     ;
(PID.TID 0000.0001) windStressMax = /* Maximum absolute windstress [ Pa ] */
(PID.TID 0000.0001)                 2.000000000000000E+00
(PID.TID 0000.0001)     ;
(PID.TID 0000.0001) stressIsOnCgrid = /* set u,v_stress on Arakawa C-grid */
(PID.TID 0000.0001)                   F
(PID.TID 0000.0001)     ;
(PID.TID 0000.0001) rotateStressOnAgrid = /* rotate u,v_stress on Arakawa A-grid */
(PID.TID 0000.0001)                   F
(PID.TID 0000.0001)     ;
(PID.TID 0000.0001) cen2kel = /* conversion of deg. Centigrade to Kelvin [K] */
(PID.TID 0000.0001)                 2.731500000000000E+02
(PID.TID 0000.0001)     ;
(PID.TID 0000.0001) gravity_mks= /* gravitational acceleration [m/s^2] */
(PID.TID 0000.0001)                 9.810000000000000E+00
(PID.TID 0000.0001)     ;
(PID.TID 0000.0001) atmrho =  /* mean atmospheric density [kg/m^3] */
(PID.TID 0000.0001)                 1.220000000000000E+00
(PID.TID 0000.0001)     ;
(PID.TID 0000.0001) atmcp =  /* mean atmospheric specific heat [J/kg/K] */
(PID.TID 0000.0001)                 1.005000000000000E+03
(PID.TID 0000.0001)     ;
(PID.TID 0000.0001) flamb =  /* latent heat of evaporation [J/kg] */
(PID.TID 0000.0001)                 2.500000000000000E+06
(PID.TID 0000.0001)     ;
(PID.TID 0000.0001) flami =  /* latent heat of pure-ice melting [J/kg] */
(PID.TID 0000.0001)                 3.340000000000000E+05
(PID.TID 0000.0001)     ;
(PID.TID 0000.0001) cvapor_fac = /* const. for Saturation calculation [?] */
(PID.TID 0000.0001)                 6.403800000000000E+05
(PID.TID 0000.0001)     ;
(PID.TID 0000.0001) cvapor_exp = /* const. for Saturation calculation [?] */
(PID.TID 0000.0001)                 5.107400000000000E+03
(PID.TID 0000.0001)     ;
(PID.TID 0000.0001) cvapor_fac_ice= /* const. for Saturation calculation [?] */
(PID.TID 0000.0001)                 1.163780000000000E+07
(PID.TID 0000.0001)     ;
(PID.TID 0000.0001) cvapor_exp_ice= /* const. for Saturation calculation [?] */
(PID.TID 0000.0001)                 5.897800000000000E+03
(PID.TID 0000.0001)     ;
(PID.TID 0000.0001) humid_fac = /* humidity coef. in virtual temp. [(kg/kg)^-1] */
(PID.TID 0000.0001)                 6.080000000000000E-01
(PID.TID 0000.0001)     ;
(PID.TID 0000.0001) gamma_blk = /* adiabatic lapse rate [?] */
(PID.TID 0000.0001)                 1.000000000000000E-02
(PID.TID 0000.0001)     ;
(PID.TID 0000.0001) saltsat = /* reduction of Qsat over salty water [-] */
(PID.TID 0000.0001)                 9.800000000000000E-01
(PID.TID 0000.0001)     ;
(PID.TID 0000.0001) noNegativeEvap = /* prevent negative Evaporation */
(PID.TID 0000.0001)                   F
(PID.TID 0000.0001)     ;
(PID.TID 0000.0001) sstExtrapol = /* extrapolation coeff from lev. 1 & 2 to surf [-] */
(PID.TID 0000.0001)                 0.000000000000000E+00
(PID.TID 0000.0001)     ;
(PID.TID 0000.0001) cDrag_1 = /* coef used in drag calculation [?] */
(PID.TID 0000.0001)                 2.700000000000000E-03
(PID.TID 0000.0001)     ;
(PID.TID 0000.0001) cDrag_2 = /* coef used in drag calculation [?] */
(PID.TID 0000.0001)                 1.420000000000000E-04
(PID.TID 0000.0001)     ;
(PID.TID 0000.0001) cDrag_3 = /* coef used in drag calculation [?] */
(PID.TID 0000.0001)                 7.640000000000000E-05
(PID.TID 0000.0001)     ;
(PID.TID 0000.0001) cStanton_1 = /* coef used in Stanton number calculation [?] */
(PID.TID 0000.0001)                 3.270000000000000E-02
(PID.TID 0000.0001)     ;
(PID.TID 0000.0001) cStanton_2 = /* coef used in Stanton number calculation [?] */
(PID.TID 0000.0001)                 1.800000000000000E-02
(PID.TID 0000.0001)     ;
(PID.TID 0000.0001) cDalton = /* coef used in Dalton number calculation [?] */
(PID.TID 0000.0001)                 3.460000000000000E-02
(PID.TID 0000.0001)     ;
(PID.TID 0000.0001) exf_scal_BulkCdn= /* Drag coefficient scaling factor [-] */
(PID.TID 0000.0001)                 1.000000000000000E+00
(PID.TID 0000.0001)     ;
(PID.TID 0000.0001) zolmin = /* minimum stability parameter [?] */
(PID.TID 0000.0001)                -1.000000000000000E+02
(PID.TID 0000.0001)     ;
(PID.TID 0000.0001) psim_fac = /* coef used in turbulent fluxes calculation [-] */
(PID.TID 0000.0001)                 5.000000000000000E+00
(PID.TID 0000.0001)     ;
(PID.TID 0000.0001) zref =  /* reference height [ m ] */
(PID.TID 0000.0001)                 1.000000000000000E+01
(PID.TID 0000.0001)     ;
(PID.TID 0000.0001) hu =  /* height of mean wind [ m ] */
(PID.TID 0000.0001)                 1.000000000000000E+01
(PID.TID 0000.0001)     ;
(PID.TID 0000.0001) ht =  /* height of mean temperature [ m ] */
(PID.TID 0000.0001)                 1.000000000000000E+01
(PID.TID 0000.0001)     ;
(PID.TID 0000.0001) hq =  /* height of mean spec.humidity [ m ] */
(PID.TID 0000.0001)                 1.000000000000000E+01
(PID.TID 0000.0001)     ;
(PID.TID 0000.0001) uMin = /* minimum wind speed [m/s] */
(PID.TID 0000.0001)                 5.000000000000000E-01
(PID.TID 0000.0001)     ;
(PID.TID 0000.0001) useStabilityFct_overIce= /* transfert Coeffs over sea-ice depend on stability */
(PID.TID 0000.0001)                   F
(PID.TID 0000.0001)     ;
(PID.TID 0000.0001) exf_iceCd = /* drag coefficient over sea-ice (fixed) [-] */
(PID.TID 0000.0001)                 1.630000000000000E-03
(PID.TID 0000.0001)     ;
(PID.TID 0000.0001) exf_iceCe = /* transfert coeff. over sea-ice, for Evap (fixed) [-] */
(PID.TID 0000.0001)                 1.630000000000000E-03
(PID.TID 0000.0001)     ;
(PID.TID 0000.0001) exf_iceCh = /* transfert coeff. over sea-ice, Sens.Heat.(fixed)[-] */
(PID.TID 0000.0001)                 1.630000000000000E-03
(PID.TID 0000.0001)     ;
(PID.TID 0000.0001) exf_albedo =  /* Sea-water albedo [-] */
(PID.TID 0000.0001)                 6.600000000000000E-02
(PID.TID 0000.0001)     ;
(PID.TID 0000.0001) useExfZenAlbedo = /* Sea-water albedo varies with zenith angle */
(PID.TID 0000.0001)                   F
(PID.TID 0000.0001)     ;
(PID.TID 0000.0001) select_ZenAlbedo = /* Sea-water albedo computation method */
(PID.TID 0000.0001)                       0
(PID.TID 0000.0001)     ;
(PID.TID 0000.0001) useExfZenIncoming = /* compute incoming solar radiation */
(PID.TID 0000.0001)                   F
(PID.TID 0000.0001)     ;
(PID.TID 0000.0001) ocean_emissivity = /* longwave ocean-surface emissivity [-] */
(PID.TID 0000.0001)                 1.000000000000000E+00
(PID.TID 0000.0001)     ;
(PID.TID 0000.0001) ice_emissivity = /* longwave seaice emissivity [-] */
(PID.TID 0000.0001)                 9.500000000000000E-01
(PID.TID 0000.0001)     ;
(PID.TID 0000.0001) snow_emissivity = /* longwave snow  emissivity [-] */
(PID.TID 0000.0001)                 9.500000000000000E-01
(PID.TID 0000.0001)     ;
(PID.TID 0000.0001) 
(PID.TID 0000.0001)  EXF main CPP flags:
(PID.TID 0000.0001) 
(PID.TID 0000.0001) // USE_EXF_INTERPOLATION:              defined
(PID.TID 0000.0001) // ALLOW_ATM_TEMP:                     defined
(PID.TID 0000.0001) // ALLOW_ATM_WIND (useAtmWind):        defined
(PID.TID 0000.0001) // ALLOW_DOWNWARD_RADIATION:           defined
(PID.TID 0000.0001) // ALLOW_BULKFORMULAE:                 defined
(PID.TID 0000.0001) 
(PID.TID 0000.0001)    Zonal wind forcing starts at                  -31568400.
(PID.TID 0000.0001)    Zonal wind forcing period is                      21600.
(PID.TID 0000.0001)    Zonal wind forcing repeat-cycle is             31536000.
(PID.TID 0000.0001)    Zonal wind forcing is read from file:
(PID.TID 0000.0001)    >> CORE2_u10m_6hrly_r2_cnyf <<
(PID.TID 0000.0001)    interpolate "uwind" (method= 12 ):
(PID.TID 0000.0001)    lon0=   0.00000, nlon=   192, lon_inc= 1.8750000
(PID.TID 0000.0001)    lat0= -88.54200, nlat=    94, inc(min,max)= 1.88880 1.90480
(PID.TID 0000.0001) 
(PID.TID 0000.0001)    Meridional wind forcing starts at             -31568400.
(PID.TID 0000.0001)    Meridional wind forcing period is                 21600.
(PID.TID 0000.0001)    Meridional wind forcing repeat-cycle is        31536000.
(PID.TID 0000.0001)    Meridional wind forcing is read from file:
(PID.TID 0000.0001)    >> CORE2_v10m_6hrly_r2_cnyf <<
(PID.TID 0000.0001)    interpolate "vwind" (method= 22 ):
(PID.TID 0000.0001)    lon0=   0.00000, nlon=   192, lon_inc= 1.8750000
(PID.TID 0000.0001)    lat0= -88.54200, nlat=    94, inc(min,max)= 1.88880 1.90480
(PID.TID 0000.0001)     Interp. U & V comp. together: uvInterp_wind =    T
(PID.TID 0000.0001) 
(PID.TID 0000.0001)    Atmospheric temperature starts at             -31568400.
(PID.TID 0000.0001)    Atmospheric temperature period is                 21600.
(PID.TID 0000.0001)    Atmospheric temperature repeat-cycle is        31536000.
(PID.TID 0000.0001)    Atmospheric temperature is read from file:
(PID.TID 0000.0001)    >> CORE2_tmp10m_6hrly_r2_cnyf <<
(PID.TID 0000.0001)    interpolate "atemp" (method=  1 ):
(PID.TID 0000.0001)    lon0=   0.00000, nlon=   192, lon_inc= 1.8750000
(PID.TID 0000.0001)    lat0= -88.54200, nlat=    94, inc(min,max)= 1.88880 1.90480
(PID.TID 0000.0001) 
(PID.TID 0000.0001)    Atmospheric specific humidity starts at       -31568400.
(PID.TID 0000.0001)    Atmospheric specific humidity period is           21600.
(PID.TID 0000.0001)    Atmospheric specific humidity rep-cycle is     31536000.
(PID.TID 0000.0001)    Atmospheric specific humidity is read from file:
(PID.TID 0000.0001)    >> CORE2_spfh10m_6hrly_r2_cnyf <<
(PID.TID 0000.0001)    interpolate "aqh" (method=  1 ):
(PID.TID 0000.0001)    lon0=   0.00000, nlon=   192, lon_inc= 1.8750000
(PID.TID 0000.0001)    lat0= -88.54200, nlat=    94, inc(min,max)= 1.88880 1.90480
(PID.TID 0000.0001) 
(PID.TID 0000.0001) // ALLOW_READ_TURBFLUXES:          NOT defined
(PID.TID 0000.0001) // EXF_READ_EVAP:                  NOT defined
(PID.TID 0000.0001) 
(PID.TID 0000.0001)    Precipitation data starts at                  -30326400.
(PID.TID 0000.0001)    Precipitation data period is                    2628000.
(PID.TID 0000.0001)    Precipitation data repeat-cycle is             31536000.
(PID.TID 0000.0001)    Precipitation data is read from file:
(PID.TID 0000.0001)    >> CORE2_rain_monthly_r2_cnyf <<
(PID.TID 0000.0001)    interpolate "precip" (method=  1 ):
(PID.TID 0000.0001)    lon0=   0.00000, nlon=   192, lon_inc= 1.8750000
(PID.TID 0000.0001)    lat0= -88.54200, nlat=    94, inc(min,max)= 1.88880 1.90480
(PID.TID 0000.0001) 
(PID.TID 0000.0001) // ALLOW_RUNOFF:                       defined
(PID.TID 0000.0001) // ALLOW_RUNOFTEMP:                NOT defined
(PID.TID 0000.0001) // ALLOW_SALTFLX:                      defined
(PID.TID 0000.0001) 
(PID.TID 0000.0001)    Downward shortwave flux starts at             -31536000.
(PID.TID 0000.0001)    Downward shortwave flux period is                 86400.
(PID.TID 0000.0001)    Downward shortwave flux repeat-cycle is        31536000.
(PID.TID 0000.0001)    Downward shortwave flux is read from file:
(PID.TID 0000.0001)    >> CORE2_dsw_daily_r2_cnyf <<
(PID.TID 0000.0001)    interpolate "swdown" (method=  1 ):
(PID.TID 0000.0001)    lon0=   0.00000, nlon=   192, lon_inc= 1.8750000
(PID.TID 0000.0001)    lat0= -88.54200, nlat=    94, inc(min,max)= 1.88880 1.90480
(PID.TID 0000.0001) 
(PID.TID 0000.0001)    Downward longwave flux starts at              -31536000.
(PID.TID 0000.0001)    Downward longwave flux period is                  86400.
(PID.TID 0000.0001)    Downward longwave flux repeat-cycle is         31536000.
(PID.TID 0000.0001)    Downward longwave flux is read from file:
(PID.TID 0000.0001)    >> CORE2_dlw_daily_r2_cnyf <<
(PID.TID 0000.0001)    interpolate "lwdown" (method=  1 ):
(PID.TID 0000.0001)    lon0=   0.00000, nlon=   192, lon_inc= 1.8750000
(PID.TID 0000.0001)    lat0= -88.54200, nlat=    94, inc(min,max)= 1.88880 1.90480
(PID.TID 0000.0001) 
(PID.TID 0000.0001) // =======================================================
(PID.TID 0000.0001) // External forcing (EXF) climatology configuration :
(PID.TID 0000.0001) // =======================================================
(PID.TID 0000.0001) 
(PID.TID 0000.0001) // ALLOW_CLIMSST_RELAXATION:           defined
(PID.TID 0000.0001)    climsst relaxation is NOT used
(PID.TID 0000.0001) 
(PID.TID 0000.0001) // ALLOW_CLIMSSS_RELAXATION:           defined
(PID.TID 0000.0001)    Climatological SSS period is                        -12.
(PID.TID 0000.0001)    Climatological SSS is read from file:
(PID.TID 0000.0001)    >> some_SSS_atlas.bin <<
(PID.TID 0000.0001)    assume "climsss" on model-grid (no interpolation)
(PID.TID 0000.0001) 
(PID.TID 0000.0001) // =======================================================
(PID.TID 0000.0001) // External forcing (EXF) configuration  >>> END <<<
(PID.TID 0000.0001) // =======================================================
(PID.TID 0000.0001) 
(PID.TID 0000.0001) entering boxmean/horflux check,k,using_gencost(k): ,  1    T
(PID.TID 0000.0001) entering boxmean/horflux check,k,using_gencost(k): ,  2    T
(PID.TID 0000.0001) ecco_check for gencost transp & moc; k,using_gencost(k): ,  3    T
(PID.TID 0000.0001) ecco_check file, exst: north10_maskW    T
(PID.TID 0000.0001) ecco_check file, exst: north10_maskS    T
(PID.TID 0000.0001) ecco_check: gencost transp; icount_transp,using_cost_transp:   0    F
(PID.TID 0000.0001) etaday defined by gencost   0
(PID.TID 0000.0001) 
(PID.TID 0000.0001) // =======================================================
(PID.TID 0000.0001) // ECCO configuration >>> START <<<
(PID.TID 0000.0001) // =======================================================
(PID.TID 0000.0001) 
(PID.TID 0000.0001) gencost( 1) = south30_mean_theta
(PID.TID 0000.0001) -------------
(PID.TID 0000.0001)   starts and ends at :
(PID.TID 0000.0001)   19480101  120000  2   7
(PID.TID 0000.0001)   19480101  200000  2   7
(PID.TID 0000.0001)   number of records =     9
(PID.TID 0000.0001)  model file = m_boxmean_theta
(PID.TID 0000.0001)  error file =
(PID.TID 0000.0001)  gencost_flag = -3
(PID.TID 0000.0001)  gencost_outputlevel =  1
(PID.TID 0000.0001) 
(PID.TID 0000.0001) gencost( 2) = north10_flux_vol
(PID.TID 0000.0001) -------------
(PID.TID 0000.0001)   starts and ends at :
(PID.TID 0000.0001)   19480101  120000  2   7
(PID.TID 0000.0001)   19480101  200000  2   7
(PID.TID 0000.0001)   number of records =     9
(PID.TID 0000.0001)  model file = m_horflux_vol
(PID.TID 0000.0001)  error file =
(PID.TID 0000.0001)  gencost_flag = -3
(PID.TID 0000.0001)  gencost_outputlevel =  1
(PID.TID 0000.0001) 
(PID.TID 0000.0001) gencost( 3) = moc_north10
(PID.TID 0000.0001) -------------
(PID.TID 0000.0001)   starts and ends at :
(PID.TID 0000.0001)   19480101  120000  2   7
(PID.TID 0000.0001)   19480101  200000  2   7
(PID.TID 0000.0001)   number of records =     9
(PID.TID 0000.0001)  model file = m_trVol_step
(PID.TID 0000.0001)  error file =
(PID.TID 0000.0001)  gencost_flag = -5
(PID.TID 0000.0001)  gencost_outputlevel =  1
(PID.TID 0000.0001)  gencost_pointer3d =  1
(PID.TID 0000.0001) 
(PID.TID 0000.0001) 
(PID.TID 0000.0001) 
(PID.TID 0000.0001) // =======================================================
(PID.TID 0000.0001) // ECCO configuration  >>> END <<<
(PID.TID 0000.0001) // =======================================================
(PID.TID 0000.0001) 
(PID.TID 0000.0001) 
(PID.TID 0000.0001) // =======================================================
(PID.TID 0000.0001) // insitu profiles model sampling >>> START <<<
(PID.TID 0000.0001) // =======================================================
(PID.TID 0000.0001) 
(PID.TID 0000.0001) 
(PID.TID 0000.0001)   profilesDir profiles/
(PID.TID 0000.0001)   profilesDoGenGrid      T
(PID.TID 0000.0001)   profilesDoNcOutput     F
(PID.TID 0000.0001) 
(PID.TID 0000.0001) 
(PID.TID 0000.0001) // =======================================================
(PID.TID 0000.0001) // insitu profiles model sampling >>> END <<<
(PID.TID 0000.0001) // =======================================================
(PID.TID 0000.0001) 
(PID.TID 0000.0001) // =======================================================
(PID.TID 0000.0001) // Seaice configuration (SEAICE_PARM01) >>> START <<<
(PID.TID 0000.0001) // =======================================================
(PID.TID 0000.0001) 
(PID.TID 0000.0001)    Seaice time stepping configuration   > START <
(PID.TID 0000.0001)    ----------------------------------------------
(PID.TID 0000.0001) SEAICE_deltaTtherm= /* thermodynamic timestep */
(PID.TID 0000.0001)                 3.600000000000000E+03
(PID.TID 0000.0001)     ;
(PID.TID 0000.0001) SEAICE_deltaTdyn  = /* dynamic timestep */
(PID.TID 0000.0001)                 3.600000000000000E+03
(PID.TID 0000.0001)     ;
(PID.TID 0000.0001) SEAICE_deltaTevp  = /* EVP timestep */
(PID.TID 0000.0001)                 1.234567000000000E+05
(PID.TID 0000.0001)     ;
(PID.TID 0000.0001) SEAICEuseBDF2  = /* use backw. differencing for mom. eq. */
(PID.TID 0000.0001)                   F
(PID.TID 0000.0001)     ;
(PID.TID 0000.0001) SEAICEupdateOceanStress= /* update Ocean surf. stress */
(PID.TID 0000.0001)                   T
(PID.TID 0000.0001)     ;
(PID.TID 0000.0001) SEAICErestoreUnderIce  = /* restore T and S under ice */
(PID.TID 0000.0001)                   T
(PID.TID 0000.0001)     ;
(PID.TID 0000.0001) 
(PID.TID 0000.0001)    Seaice dynamics configuration   > START <
(PID.TID 0000.0001)    ------------------------------------------
(PID.TID 0000.0001) SEAICEuseDYNAMICS = /* use dynamics */
(PID.TID 0000.0001)                   T
(PID.TID 0000.0001)     ;
(PID.TID 0000.0001) model grid type   = /* type of sea ice model grid */
(PID.TID 0000.0001)               'C-GRID'
(PID.TID 0000.0001)     ;
(PID.TID 0000.0001) SEAICEuseStrImpCpl = /* use strongly implicit coupling */
(PID.TID 0000.0001)                   F
(PID.TID 0000.0001)     ;
(PID.TID 0000.0001) SEAICEusePicardAsPrecon = /* Picard as preconditioner */
(PID.TID 0000.0001)                   F
(PID.TID 0000.0001)     ;
(PID.TID 0000.0001) SEAICEuseLSR      = /* use default Picard-LSR solver */
(PID.TID 0000.0001)                   T
(PID.TID 0000.0001)     ;
(PID.TID 0000.0001) SEAICEuseKrylov   = /* use Picard-Krylov solver */
(PID.TID 0000.0001)                   F
(PID.TID 0000.0001)     ;
(PID.TID 0000.0001) SEAICEuseEVP      = /* use EVP solver rather than LSR */
(PID.TID 0000.0001)                   F
(PID.TID 0000.0001)     ;
(PID.TID 0000.0001) SEAICEuseJFNK     = /* use JFNK solver */
(PID.TID 0000.0001)                   F
(PID.TID 0000.0001)     ;
(PID.TID 0000.0001) SEAICEuseFREEDRIFT = /* use free drift solution */
(PID.TID 0000.0001)                   F
(PID.TID 0000.0001)     ;
(PID.TID 0000.0001) OCEAN_drag        = /* air-ocean drag coefficient */
(PID.TID 0000.0001)                 1.000000000000000E-03
(PID.TID 0000.0001)     ;
(PID.TID 0000.0001) SEAICE_drag       = /* air-ice drag coefficient */
(PID.TID 0000.0001)                 2.000000000000000E-03
(PID.TID 0000.0001)     ;
(PID.TID 0000.0001) SEAICE_drag_south      = /* Southern Ocean SEAICE_drag */
(PID.TID 0000.0001)                 2.000000000000000E-03
(PID.TID 0000.0001)     ;
(PID.TID 0000.0001) SEAICE_waterDrag  = /* water-ice drag (no units) */
(PID.TID 0000.0001)                 5.344995140913508E-03
(PID.TID 0000.0001)     ;
(PID.TID 0000.0001) SEAICE_waterDrag_south = /* Southern Ocean waterDrag (no units) */
(PID.TID 0000.0001)                 5.344995140913508E-03
(PID.TID 0000.0001)     ;
(PID.TID 0000.0001) SEAICEdWatMin = /* minimum linear water-ice drag (in m/s) */
(PID.TID 0000.0001)                 2.500000000000000E-01
(PID.TID 0000.0001)     ;
(PID.TID 0000.0001) SEAICEuseTilt     = /* include surface tilt in dyna. */
(PID.TID 0000.0001)                   F
(PID.TID 0000.0001)     ;
(PID.TID 0000.0001) SEAICEuseTEM      = /* use truncated ellipse rheology */
(PID.TID 0000.0001)                   F
(PID.TID 0000.0001)     ;
(PID.TID 0000.0001) SEAICE_strength   = /* sea-ice strength Pstar */
(PID.TID 0000.0001)                 2.250000000000000E+04
(PID.TID 0000.0001)     ;
(PID.TID 0000.0001) SEAICE_cStar      = /* sea-ice strength parameter cStar */
(PID.TID 0000.0001)                 2.000000000000000E+01
(PID.TID 0000.0001)     ;
(PID.TID 0000.0001) SEAICEpressReplFac= /* press. replacement method factor */
(PID.TID 0000.0001)                 1.000000000000000E+00
(PID.TID 0000.0001)     ;
(PID.TID 0000.0001) SEAICE_tensilFac  = /* sea-ice tensile strength factor */
(PID.TID 0000.0001)                 0.000000000000000E+00
(PID.TID 0000.0001)     ;
(PID.TID 0000.0001) SEAICE_tensilDepth= /* crit. depth for tensile strength */
(PID.TID 0000.0001)                 0.000000000000000E+00
(PID.TID 0000.0001)     ;
(PID.TID 0000.0001) SEAICEpresH0   = /* sea-ice strength Heff threshold */
(PID.TID 0000.0001)                 2.000000000000000E+00
(PID.TID 0000.0001)     ;
(PID.TID 0000.0001) SEAICEpresPow0 = /* exponent for Heff<SEAICEpresH0 */
(PID.TID 0000.0001)                       1
(PID.TID 0000.0001)     ;
(PID.TID 0000.0001) SEAICEpresPow1 = /* exponent for Heff>SEAICEpresH0 */
(PID.TID 0000.0001)                       1
(PID.TID 0000.0001)     ;
(PID.TID 0000.0001) SEAICEetaZmethod = /* method computing eta at Z-point */
(PID.TID 0000.0001)                       0
(PID.TID 0000.0001)     ;
(PID.TID 0000.0001) SEAICE_zetaMaxFac = /* factor for upper viscosity bound */
(PID.TID 0000.0001)                 2.500000000000000E+08
(PID.TID 0000.0001)     ;
(PID.TID 0000.0001) SEAICE_zetaMin    = /* lower bound for viscosity */
(PID.TID 0000.0001)                 0.000000000000000E+00
(PID.TID 0000.0001)     ;
(PID.TID 0000.0001) SEAICE_eccen    = /* elliptical yield curve eccent */
(PID.TID 0000.0001)                 2.000000000000000E+00
(PID.TID 0000.0001)     ;
(PID.TID 0000.0001) SEAICEstressFactor    = /* wind stress scaling factor */
(PID.TID 0000.0001)                 1.000000000000000E+00
(PID.TID 0000.0001)     ;
(PID.TID 0000.0001) SEAICE_airTurnAngle    = /* air-ice turning angle */
(PID.TID 0000.0001)                 0.000000000000000E+00
(PID.TID 0000.0001)     ;
(PID.TID 0000.0001) SEAICE_waterTurnAngle  = /* ice-water turning angle */
(PID.TID 0000.0001)                 0.000000000000000E+00
(PID.TID 0000.0001)     ;
(PID.TID 0000.0001) SEAICEuseMetricTerms = /* use metric terms */
(PID.TID 0000.0001)                   T
(PID.TID 0000.0001)     ;
(PID.TID 0000.0001) SEAICE_no_slip    = /* no slip boundary conditions */
(PID.TID 0000.0001)                   T
(PID.TID 0000.0001)     ;
(PID.TID 0000.0001) SEAICE_2ndOrderBC = /* 2nd order no slip boundary conditions */
(PID.TID 0000.0001)                   F
(PID.TID 0000.0001)     ;
(PID.TID 0000.0001) SEAICE_clipVeloctities = /* impose max. vels. */
(PID.TID 0000.0001)                   T
(PID.TID 0000.0001)     ;
(PID.TID 0000.0001) useHB87stressCoupling  = /* altern. ice-ocean stress */
(PID.TID 0000.0001)                   F
(PID.TID 0000.0001)     ;
(PID.TID 0000.0001) SEAICEscaleSurfStress  = /* scale atm. and ocean-surface stress with AREA */
(PID.TID 0000.0001)                   F
(PID.TID 0000.0001)     ;
(PID.TID 0000.0001) SEAICE_maskRHS    = /* mask RHS of solver */
(PID.TID 0000.0001)                   F
(PID.TID 0000.0001)     ;
(PID.TID 0000.0001) SEAICEaddSnowMass = /* add snow mass to seaiceMassC/U/V */
(PID.TID 0000.0001)                   F
(PID.TID 0000.0001)     ;
(PID.TID 0000.0001) LSR_mixIniGuess = /* mix free-drift sol. into LSR initial Guess */
(PID.TID 0000.0001)                       0
(PID.TID 0000.0001)     ;
(PID.TID 0000.0001) SEAICE_LSRrelaxU  = /* LSR solver: relaxation parameter */
(PID.TID 0000.0001)                 9.500000000000000E-01
(PID.TID 0000.0001)     ;
(PID.TID 0000.0001) SEAICE_LSRrelaxV  = /* LSR solver: relaxation parameter */
(PID.TID 0000.0001)                 9.500000000000000E-01
(PID.TID 0000.0001)     ;
(PID.TID 0000.0001) LSR_ERROR         = /* sets accuracy of LSR solver */
(PID.TID 0000.0001)                 2.000000000000000E-04
(PID.TID 0000.0001)     ;
(PID.TID 0000.0001) SOLV_NCHECK       = /* test interval for LSR solver */
(PID.TID 0000.0001)                       2
(PID.TID 0000.0001)     ;
(PID.TID 0000.0001) SEAICEuseMultiTileSolver = /* use full domain tri-diag solver */
(PID.TID 0000.0001)                   F
(PID.TID 0000.0001)     ;
(PID.TID 0000.0001) SEAICE_OLx = /* overlap for LSR/preconditioner */
(PID.TID 0000.0001)                       0
(PID.TID 0000.0001)     ;
(PID.TID 0000.0001) SEAICE_OLy = /* overlap for LSR/preconditioner */
(PID.TID 0000.0001)                       0
(PID.TID 0000.0001)     ;
(PID.TID 0000.0001) SEAICEnonLinIterMax = /* max. number of nonlinear solver steps */
(PID.TID 0000.0001)                       2
(PID.TID 0000.0001)     ;
(PID.TID 0000.0001) SEAICElinearIterMax = /* max. number of linear solver steps */
(PID.TID 0000.0001)                    1500
(PID.TID 0000.0001)     ;
(PID.TID 0000.0001) SEAICEnonLinTol     = /* non-linear solver tolerance */
(PID.TID 0000.0001)                 0.000000000000000E+00
(PID.TID 0000.0001)     ;
(PID.TID 0000.0001) 
(PID.TID 0000.0001)    Seaice advection diffusion config,   > START <
(PID.TID 0000.0001)    -----------------------------------------------
(PID.TID 0000.0001) SEAICEmomAdvection = /* advect sea ice momentum */
(PID.TID 0000.0001)                   F
(PID.TID 0000.0001)     ;
(PID.TID 0000.0001) SEAICEadvHeff = /* advect effective ice thickness */
(PID.TID 0000.0001)                   T
(PID.TID 0000.0001)     ;
(PID.TID 0000.0001) SEAICEadvArea = /* advect fractional ice area */
(PID.TID 0000.0001)                   T
(PID.TID 0000.0001)     ;
(PID.TID 0000.0001) SEAICEadvSnow = /* advect snow layer together with ice */
(PID.TID 0000.0001)                   T
(PID.TID 0000.0001)     ;
(PID.TID 0000.0001) SEAICEadvScheme   = /* advection scheme for ice */
(PID.TID 0000.0001)                      30
(PID.TID 0000.0001)     ;
(PID.TID 0000.0001) SEAICEadvSchArea   = /* advection scheme for area */
(PID.TID 0000.0001)                      30
(PID.TID 0000.0001)     ;
(PID.TID 0000.0001) SEAICEadvSchHeff   = /* advection scheme for thickness */
(PID.TID 0000.0001)                      30
(PID.TID 0000.0001)     ;
(PID.TID 0000.0001) SEAICEadvSchSnow   = /* advection scheme for snow */
(PID.TID 0000.0001)                      30
(PID.TID 0000.0001)     ;
(PID.TID 0000.0001) SEAICEdiffKhArea   = /* diffusivity (m^2/s) for area */
(PID.TID 0000.0001)                 4.000000000000000E+02
(PID.TID 0000.0001)     ;
(PID.TID 0000.0001) SEAICEdiffKhHeff   = /* diffusivity (m^2/s) for heff */
(PID.TID 0000.0001)                 4.000000000000000E+02
(PID.TID 0000.0001)     ;
(PID.TID 0000.0001) SEAICEdiffKhSnow   = /* diffusivity (m^2/s) for snow */
(PID.TID 0000.0001)                 4.000000000000000E+02
(PID.TID 0000.0001)     ;
(PID.TID 0000.0001) DIFF1             = /* parameter used in advect.F [m/s] */
(PID.TID 0000.0001)                 0.000000000000000E+00
(PID.TID 0000.0001)     ;
(PID.TID 0000.0001) 
(PID.TID 0000.0001)    Seaice thermodynamics configuration   > START <
(PID.TID 0000.0001)    -----------------------------------------------
(PID.TID 0000.0001) SEAICE_rhoIce     = /* density of sea ice (kg/m3) */
(PID.TID 0000.0001)                 9.100000000000000E+02
(PID.TID 0000.0001)     ;
(PID.TID 0000.0001) SEAICE_rhoSnow    = /* density of snow (kg/m3) */
(PID.TID 0000.0001)                 3.300000000000000E+02
(PID.TID 0000.0001)     ;
(PID.TID 0000.0001) SEAICE_rhoAir     = /* density of air (kg/m3) */
(PID.TID 0000.0001)                 1.220000000000000E+00
(PID.TID 0000.0001)     ;
(PID.TID 0000.0001) usePW79thermodynamics  = /* default 0-layer TD */
(PID.TID 0000.0001)                   T
(PID.TID 0000.0001)     ;
(PID.TID 0000.0001) SEAICE_lhEvap     = /* latent heat of evaporation */
(PID.TID 0000.0001)                 2.500000000000000E+06
(PID.TID 0000.0001)     ;
(PID.TID 0000.0001) SEAICE_lhFusion   = /* latent heat of fusion */
(PID.TID 0000.0001)                 3.340000000000000E+05
(PID.TID 0000.0001)     ;
(PID.TID 0000.0001) SEAICE_mcPheePiston = /* turbulent flux "piston velocity" a la McPhee (m/s) */
(PID.TID 0000.0001)                 3.858024691358025E-05
(PID.TID 0000.0001)     ;
(PID.TID 0000.0001) SEAICE_mcPheeTaper = /* tapering of turbulent flux (0.< <1.) for AREA=1. */
(PID.TID 0000.0001)                 0.000000000000000E+00
(PID.TID 0000.0001)     ;
(PID.TID 0000.0001) SEAICE_mcPheeStepFunc = /* replace linear tapering with step funct. */
(PID.TID 0000.0001)                   F
(PID.TID 0000.0001)     ;
(PID.TID 0000.0001) SEAICE_frazilFrac = /* frazil (T<tempFrz) to seaice conversion rate (0.< <1.) */
(PID.TID 0000.0001)                 1.000000000000000E+00
(PID.TID 0000.0001)     ;
(PID.TID 0000.0001) SEAICE_tempFrz0   = /* freezing temp. of sea water (intercept) */
(PID.TID 0000.0001)                -1.960000000000000E+00
(PID.TID 0000.0001)     ;
(PID.TID 0000.0001) SEAICE_dTempFrz_dS= /* freezing temp. of sea water (slope) */
(PID.TID 0000.0001)                 0.000000000000000E+00
(PID.TID 0000.0001)     ;
(PID.TID 0000.0001) SEAICE_growMeltByConv  = /* grow,melt by vert. conv. */
(PID.TID 0000.0001)                   F
(PID.TID 0000.0001)     ;
(PID.TID 0000.0001) SEAICE_doOpenWaterGrowth = /* grow by open water */
(PID.TID 0000.0001)                   T
(PID.TID 0000.0001)     ;
(PID.TID 0000.0001) SEAICE_doOpenWaterMelt = /* melt by open water */
(PID.TID 0000.0001)                   F
(PID.TID 0000.0001)     ;
(PID.TID 0000.0001) SEAICE_areaGainFormula = /* ice cover gain formula (1,2)*/
(PID.TID 0000.0001)                       1
(PID.TID 0000.0001)     1=from growth by ATM
(PID.TID 0000.0001)     2=from predicted growth by ATM
(PID.TID 0000.0001)     ;
(PID.TID 0000.0001) SEAICE_areaLossFormula = /* ice cover loss formula (1,2)*/
(PID.TID 0000.0001)                       2
(PID.TID 0000.0001)     1=from all but only melt conributions by ATM and OCN
(PID.TID 0000.0001)     2=from net melt-grow>0 by ATM and OCN
(PID.TID 0000.0001)     3=from predicted melt by ATM
(PID.TID 0000.0001)     ;
(PID.TID 0000.0001) HO                = /* nominal thickness of new ice */
(PID.TID 0000.0001)                 5.000000000000000E-01
(PID.TID 0000.0001)     ;
(PID.TID 0000.0001) HO_south               = /* Southern Ocean HO */
(PID.TID 0000.0001)                 5.000000000000000E-01
(PID.TID 0000.0001)     ;
(PID.TID 0000.0001) SEAICE_area_max        = /* set to les than 1. to mimic open leads */
(PID.TID 0000.0001)                 9.700000000000000E-01
(PID.TID 0000.0001)     ;
(PID.TID 0000.0001) SEAICE_salt0   = /* constant sea ice salinity */
(PID.TID 0000.0001)                 4.000000000000000E+00
(PID.TID 0000.0001)     ;
(PID.TID 0000.0001) SEAICE_salinityTracer = /* test SITR varia. salinity */
(PID.TID 0000.0001)                   F
(PID.TID 0000.0001)     ;
(PID.TID 0000.0001) SEAICEuseFlooding = /* turn submerged snow into ice */
(PID.TID 0000.0001)                   T
(PID.TID 0000.0001)     ;
(PID.TID 0000.0001) 
(PID.TID 0000.0001)    Seaice air-sea fluxes configuration,   > START <
(PID.TID 0000.0001)    -----------------------------------------------
(PID.TID 0000.0001) SEAICEheatConsFix  = /* accound for ocn<->seaice advect. heat flux */
(PID.TID 0000.0001)                   T
(PID.TID 0000.0001)     ;
(PID.TID 0000.0001) SEAICE_multDim    = /* number of ice categories (1 or 7) */
(PID.TID 0000.0001)                       1
(PID.TID 0000.0001)     ;
(PID.TID 0000.0001) SEAICE_PDF        = /* sea-ice distribution (-) */
(PID.TID 0000.0001)                 1.000000000000000E+00,      /* K =  1 */
(PID.TID 0000.0001)     6 @  0.000000000000000E+00              /* K =  2:  7 */
(PID.TID 0000.0001)     ;
(PID.TID 0000.0001) IMAX_TICE         = /* iterations for ice surface temp */
(PID.TID 0000.0001)                      10
(PID.TID 0000.0001)     ;
(PID.TID 0000.0001) postSolvTempIter= /* flux calculation after surf. temp iter */
(PID.TID 0000.0001)                       2
(PID.TID 0000.0001)     ;
(PID.TID 0000.0001) SEAICE_dryIceAlb  = /* winter albedo */
(PID.TID 0000.0001)                 7.500000000000000E-01
(PID.TID 0000.0001)     ;
(PID.TID 0000.0001) SEAICE_wetIceAlb  = /* summer albedo */
(PID.TID 0000.0001)                 6.600000000000000E-01
(PID.TID 0000.0001)     ;
(PID.TID 0000.0001) SEAICE_drySnowAlb = /* dry snow albedo */
(PID.TID 0000.0001)                 8.400000000000000E-01
(PID.TID 0000.0001)     ;
(PID.TID 0000.0001) SEAICE_wetSnowAlb = /* wet snow albedo */
(PID.TID 0000.0001)                 7.000000000000000E-01
(PID.TID 0000.0001)     ;
(PID.TID 0000.0001) SEAICE_dryIceAlb_south = /* Southern Ocean dryIceAlb */
(PID.TID 0000.0001)                 7.500000000000000E-01
(PID.TID 0000.0001)     ;
(PID.TID 0000.0001) SEAICE_wetIceAlb_south = /* Southern Ocean wetIceAlb */
(PID.TID 0000.0001)                 6.600000000000000E-01
(PID.TID 0000.0001)     ;
(PID.TID 0000.0001) SEAICE_drySnowAlb_south= /* Southern Ocean drySnowAlb */
(PID.TID 0000.0001)                 8.400000000000000E-01
(PID.TID 0000.0001)     ;
(PID.TID 0000.0001) SEAICE_wetSnowAlb_south= /* Southern Ocean wetSnowAlb */
(PID.TID 0000.0001)                 7.000000000000000E-01
(PID.TID 0000.0001)     ;
(PID.TID 0000.0001) SEAICE_wetAlbTemp= /* Temp (o.C) threshold for wet-albedo */
(PID.TID 0000.0001)                -1.000000000000000E-03
(PID.TID 0000.0001)     ;
(PID.TID 0000.0001) SEAICE_snow_emiss = /* snow emissivity */
(PID.TID 0000.0001)                 9.500000000000000E-01
(PID.TID 0000.0001)     ;
(PID.TID 0000.0001) SEAICE_ice_emiss = /* seaice emissivity */
(PID.TID 0000.0001)                 9.500000000000000E-01
(PID.TID 0000.0001)     ;
(PID.TID 0000.0001) SEAICE_cpAir      = /* heat capacity of air */
(PID.TID 0000.0001)                 1.005000000000000E+03
(PID.TID 0000.0001)     ;
(PID.TID 0000.0001) SEAICE_dalton     = /* constant dalton number */
(PID.TID 0000.0001)                 1.750000000000000E-03
(PID.TID 0000.0001)     ;
(PID.TID 0000.0001) SEAICE_iceConduct = /* sea-ice conductivity */
(PID.TID 0000.0001)                 2.165600000000000E+00
(PID.TID 0000.0001)     ;
(PID.TID 0000.0001) SEAICE_snowConduct= /* snow conductivity */
(PID.TID 0000.0001)                 3.100000000000000E-01
(PID.TID 0000.0001)     ;
(PID.TID 0000.0001) SEAICE_snowThick  = /* cutoff snow thickness (for albedo) */
(PID.TID 0000.0001)                 1.500000000000000E-01
(PID.TID 0000.0001)     ;
(PID.TID 0000.0001) SEAICE_shortwave  = /* penetration shortwave radiation */
(PID.TID 0000.0001)                 3.000000000000000E-01
(PID.TID 0000.0001)     ;
(PID.TID 0000.0001) useMaykutSatVapPoly = /* use Maykut Polynomial for Sat.Vap.Pr */
(PID.TID 0000.0001)                   F
(PID.TID 0000.0001)     ;
(PID.TID 0000.0001) MIN_ATEMP         = /* minimum air temperature */
(PID.TID 0000.0001)                -4.000000000000000E+01
(PID.TID 0000.0001)     ;
(PID.TID 0000.0001) MIN_LWDOWN        = /* minimum downward longwave */
(PID.TID 0000.0001)                 6.000000000000000E+01
(PID.TID 0000.0001)     ;
(PID.TID 0000.0001) MIN_TICE          = /* minimum ice temperature */
(PID.TID 0000.0001)                -4.000000000000000E+01
(PID.TID 0000.0001)     ;
(PID.TID 0000.0001) 
(PID.TID 0000.0001)    Seaice initialization and IO config.,   > START <
(PID.TID 0000.0001)    -------------------------------------------------
(PID.TID 0000.0001) SEAICE_initialHEFF= /* initial sea-ice thickness */
(PID.TID 0000.0001)                 0.000000000000000E+00
(PID.TID 0000.0001)     ;
(PID.TID 0000.0001) AreaFile = /* Initial ice concentration File */
(PID.TID 0000.0001)               'siAREA.ini'
(PID.TID 0000.0001)     ;
(PID.TID 0000.0001) HeffFile = /* Initial effective ice thickness File */
(PID.TID 0000.0001)               'siHEFF.ini'
(PID.TID 0000.0001)     ;
(PID.TID 0000.0001) HsnowFile = /* Initial snow thickness File */
(PID.TID 0000.0001)               'siHSNOW.ini'
(PID.TID 0000.0001)     ;
(PID.TID 0000.0001) uIceFile = /* Initial U-ice velocity File */
(PID.TID 0000.0001)               'siUICE.ini'
(PID.TID 0000.0001)     ;
(PID.TID 0000.0001) vIceFile = /* Initial V-ice velocity File */
(PID.TID 0000.0001)               'siVICE.ini'
(PID.TID 0000.0001)     ;
(PID.TID 0000.0001) SEAICEwriteState  = /* write sea ice state to file */
(PID.TID 0000.0001)                   F
(PID.TID 0000.0001)     ;
(PID.TID 0000.0001) SEAICE_monFreq  = /* monitor frequency */
(PID.TID 0000.0001)                 7.200000000000000E+03
(PID.TID 0000.0001)     ;
(PID.TID 0000.0001) SEAICE_dumpFreq   = /* dump frequency */
(PID.TID 0000.0001)                 0.000000000000000E+00
(PID.TID 0000.0001)     ;
(PID.TID 0000.0001) SEAICE_taveFreq   = /* time-averaging frequency */
(PID.TID 0000.0001)                 0.000000000000000E+00
(PID.TID 0000.0001)     ;
(PID.TID 0000.0001) SEAICE_mon_stdio  = /* write monitor to std-outp */
(PID.TID 0000.0001)                   T
(PID.TID 0000.0001)     ;
(PID.TID 0000.0001) SEAICE_dump_mdsio = /* write snap-shot   using MDSIO */
(PID.TID 0000.0001)                   T
(PID.TID 0000.0001)     ;
(PID.TID 0000.0001) SEAICE_tave_mdsio = /* write TimeAverage using MDSIO */
(PID.TID 0000.0001)                   T
(PID.TID 0000.0001)     ;
(PID.TID 0000.0001) 
(PID.TID 0000.0001)    Seaice regularization numbers,   > START <
(PID.TID 0000.0001)    -----------------------------------------------
(PID.TID 0000.0001) SEAICE_deltaMin   = /* reduce singularities in Delta */
(PID.TID 0000.0001)                 1.000000000000000E-10
(PID.TID 0000.0001)     ;
(PID.TID 0000.0001) SEAICE_EPS        = /* small number */
(PID.TID 0000.0001)                 1.000000000000000E-10
(PID.TID 0000.0001)     ;
(PID.TID 0000.0001) SEAICE_EPS_SQ     = /* small number squared */
(PID.TID 0000.0001)                 1.000000000000000E-20
(PID.TID 0000.0001)     ;
(PID.TID 0000.0001) SEAICE_area_reg   = /* reduce derivative singularities */
(PID.TID 0000.0001)                 1.000000000000000E-05
(PID.TID 0000.0001)     ;
(PID.TID 0000.0001) SEAICE_hice_reg   = /* reduce derivative singularities */
(PID.TID 0000.0001)                 5.000000000000000E-02
(PID.TID 0000.0001)     ;
(PID.TID 0000.0001) SEAICE_area_floor = /* reduce derivative singularities */
(PID.TID 0000.0001)                 1.000000000000000E-05
(PID.TID 0000.0001)     ;
(PID.TID 0000.0001) 
(PID.TID 0000.0001) // =======================================================
(PID.TID 0000.0001) // Seaice configuration (SEAICE_PARM01) >>> END <<<
(PID.TID 0000.0001) // =======================================================
(PID.TID 0000.0001) 
(PID.TID 0000.0001) ctrl-wet 1:    nvarlength =        91401
(PID.TID 0000.0001) ctrl-wet 2: surface wet C =          237
(PID.TID 0000.0001) ctrl-wet 3: surface wet W =          228
(PID.TID 0000.0001) ctrl-wet 4: surface wet S =          233
(PID.TID 0000.0001) ctrl-wet 4a:surface wet V =            0
(PID.TID 0000.0001) ctrl-wet 5: 3D wet points =        10699
(PID.TID 0000.0001) ctrl-wet 6: no recs for i =     1           0
(PID.TID 0000.0001) ctrl-wet 6: no recs for i =     2           0
(PID.TID 0000.0001) ctrl-wet 6: no recs for i =     3           0
(PID.TID 0000.0001) ctrl-wet 6: no recs for i =     4           0
(PID.TID 0000.0001) ctrl-wet 6: no recs for i =     5           0
(PID.TID 0000.0001) ctrl-wet 6: no recs for i =     6           0
(PID.TID 0000.0001) ctrl-wet 6: no recs for i =     7           0
(PID.TID 0000.0001) ctrl-wet 6: no recs for i =     8           0
(PID.TID 0000.0001) ctrl-wet 6: no recs for i =     9           0
(PID.TID 0000.0001) ctrl-wet 6: no recs for i =    10           0
(PID.TID 0000.0001) ctrl-wet 6: no recs for i =    11           0
(PID.TID 0000.0001) ctrl-wet 6: no recs for i =    12           0
(PID.TID 0000.0001) ctrl-wet 6: no recs for i =    13           0
(PID.TID 0000.0001) ctrl-wet 6: no recs for i =    14           0
(PID.TID 0000.0001) ctrl-wet 6: no recs for i =    15           0
(PID.TID 0000.0001) ctrl-wet 6: no recs for i =    16           0
(PID.TID 0000.0001) ctrl-wet 6: no recs for i =    17           0
(PID.TID 0000.0001) ctrl-wet 6: no recs for i =    18           0
(PID.TID 0000.0001) ctrl-wet 6: no recs for i =    19           0
(PID.TID 0000.0001) ctrl-wet 6: no recs for i =    20           0
(PID.TID 0000.0001) ctrl-wet 6: no recs for i =    21           0
(PID.TID 0000.0001) ctrl-wet 6: no recs for i =    22           0
(PID.TID 0000.0001) ctrl-wet 6: no recs for i =    23           0
(PID.TID 0000.0001) ctrl-wet 6: no recs for i =    24           0
(PID.TID 0000.0001) ctrl-wet 6: no recs for i =    25           0
(PID.TID 0000.0001) ctrl-wet 6: no recs for i =    26           0
(PID.TID 0000.0001) ctrl-wet 6: no recs for i =    27           0
(PID.TID 0000.0001) ctrl-wet 6: no recs for i =    28           0
(PID.TID 0000.0001) ctrl-wet 6: no recs for i =    29           0
(PID.TID 0000.0001) ctrl-wet 6: no recs for i =    30           0
(PID.TID 0000.0001) ctrl-wet 6: no recs for i =    31           0
(PID.TID 0000.0001) ctrl-wet 6: no recs for i =    32           0
(PID.TID 0000.0001) ctrl-wet 6: no recs for i =    33           0
(PID.TID 0000.0001) ctrl-wet 6: no recs for i =    34           0
(PID.TID 0000.0001) ctrl-wet 6: no recs for i =    35           0
(PID.TID 0000.0001) ctrl-wet 6: no recs for i =    36           0
(PID.TID 0000.0001) ctrl-wet 6: no recs for i =    37           0
(PID.TID 0000.0001) ctrl-wet 6: no recs for i =    38           0
(PID.TID 0000.0001) ctrl-wet 6: no recs for i =    39           0
(PID.TID 0000.0001) ctrl-wet 6: no recs for i =    40           0
(PID.TID 0000.0001) ctrl-wet 6: no recs for i =    41           0
(PID.TID 0000.0001) ctrl-wet 6: no recs for i =    42           0
(PID.TID 0000.0001) ctrl-wet 6: no recs for i =    43           0
(PID.TID 0000.0001) ctrl-wet 6: no recs for i =    44           0
(PID.TID 0000.0001) ctrl-wet 6: no recs for i =    45           0
(PID.TID 0000.0001) ctrl-wet 6: no recs for i =    46           0
(PID.TID 0000.0001) ctrl-wet 6: no recs for i =    47           0
(PID.TID 0000.0001) ctrl-wet 6: no recs for i =    48           0
(PID.TID 0000.0001) ctrl-wet 6: no recs for i =    49           0
(PID.TID 0000.0001) ctrl-wet 6: no recs for i =    50           0
(PID.TID 0000.0001) ctrl-wet 6: no recs for i =    51           0
(PID.TID 0000.0001) ctrl-wet 6: no recs for i =    52           0
(PID.TID 0000.0001) ctrl-wet 6: no recs for i =    53           0
(PID.TID 0000.0001) ctrl-wet 6: no recs for i =    54           0
(PID.TID 0000.0001) ctrl-wet 6: no recs for i =    55           0
(PID.TID 0000.0001) ctrl-wet 6: no recs for i =    56           0
(PID.TID 0000.0001) ctrl-wet 6: no recs for i =    57           0
(PID.TID 0000.0001) ctrl-wet 6: no recs for i =    58           0
(PID.TID 0000.0001) ctrl-wet 6: no recs for i =    59           0
(PID.TID 0000.0001) ctrl-wet 6: no recs for i =    60           0
(PID.TID 0000.0001) ctrl-wet 6: no recs for i =    61           0
(PID.TID 0000.0001) ctrl-wet 6: no recs for i =    62           0
(PID.TID 0000.0001) ctrl-wet 6: no recs for i =    63           0
(PID.TID 0000.0001) ctrl-wet 6: no recs for i =    64           0
(PID.TID 0000.0001) ctrl-wet 6: no recs for i =    65           0
(PID.TID 0000.0001) ctrl-wet 6: no recs for i =    66           0
(PID.TID 0000.0001) ctrl-wet 6: no recs for i =    67           0
(PID.TID 0000.0001) ctrl-wet 6: no recs for i =    68           0
(PID.TID 0000.0001) ctrl-wet 6: no recs for i =    69           0
(PID.TID 0000.0001) ctrl-wet 6: no recs for i =    70           0
(PID.TID 0000.0001) ctrl-wet 6: no recs for i =    71           0
(PID.TID 0000.0001) ctrl-wet 6: no recs for i =    72           0
(PID.TID 0000.0001) ctrl-wet 6: no recs for i =    73           0
(PID.TID 0000.0001) ctrl-wet 6: no recs for i =    74           0
(PID.TID 0000.0001) ctrl-wet 6: no recs for i =    75           0
(PID.TID 0000.0001) ctrl-wet 6: no recs for i =    76           0
(PID.TID 0000.0001) ctrl-wet 6: no recs for i =    77           0
(PID.TID 0000.0001) ctrl-wet 6: no recs for i =    78           0
(PID.TID 0000.0001) ctrl-wet 6: no recs for i =    79           0
(PID.TID 0000.0001) ctrl-wet 6: no recs for i =    80           0
(PID.TID 0000.0001) ctrl-wet 6: no recs for i =    81           0
(PID.TID 0000.0001) ctrl-wet 6: no recs for i =    82           0
(PID.TID 0000.0001) ctrl-wet 6: no recs for i =    83           0
(PID.TID 0000.0001) ctrl-wet 6: no recs for i =    84           0
(PID.TID 0000.0001) ctrl-wet 6: no recs for i =    85           0
(PID.TID 0000.0001) ctrl-wet 6: no recs for i =    86           0
(PID.TID 0000.0001) ctrl-wet 6: no recs for i =    87           0
(PID.TID 0000.0001) ctrl-wet 6: no recs for i =    88           0
(PID.TID 0000.0001) ctrl-wet 6: no recs for i =    89           0
(PID.TID 0000.0001) ctrl-wet 6: no recs for i =    90           0
(PID.TID 0000.0001) ctrl-wet 6: no recs for i =    91           0
(PID.TID 0000.0001) ctrl-wet 6: no recs for i =    92           0
(PID.TID 0000.0001) ctrl-wet 6: no recs for i =    93           0
(PID.TID 0000.0001) ctrl-wet 6: no recs for i =    94           0
(PID.TID 0000.0001) ctrl-wet 6: no recs for i =    95           0
(PID.TID 0000.0001) ctrl-wet 6: no recs for i =    96           0
(PID.TID 0000.0001) ctrl-wet 6: no recs for i =    97           0
(PID.TID 0000.0001) ctrl-wet 6: no recs for i =    98           0
(PID.TID 0000.0001) ctrl-wet 6: no recs for i =    99           0
(PID.TID 0000.0001) ctrl-wet 6: no recs for i =   100           0
(PID.TID 0000.0001) ctrl-wet 6: no recs for i =   101           0
(PID.TID 0000.0001) ctrl-wet 6: no recs for i =   102           0
(PID.TID 0000.0001) ctrl-wet 6: no recs for i =   103           0
(PID.TID 0000.0001) ctrl-wet 6: no recs for i =   104           0
(PID.TID 0000.0001) ctrl-wet 6: no recs for i =   105           0
(PID.TID 0000.0001) ctrl-wet 6: no recs for i =   106           0
(PID.TID 0000.0001) ctrl-wet 6: no recs for i =   107           0
(PID.TID 0000.0001) ctrl-wet 6: no recs for i =   108           0
(PID.TID 0000.0001) ctrl-wet 6: no recs for i =   109           0
(PID.TID 0000.0001) ctrl-wet 6: no recs for i =   110           0
(PID.TID 0000.0001) ctrl-wet 6: no recs for i =   111           0
(PID.TID 0000.0001) ctrl-wet 6: no recs for i =   112           0
(PID.TID 0000.0001) ctrl-wet 6: no recs for i =   113           0
(PID.TID 0000.0001) ctrl-wet 6: no recs for i =   114           0
(PID.TID 0000.0001) ctrl-wet 6: no recs for i =   115           0
(PID.TID 0000.0001) ctrl-wet 6: no recs for i =   116           0
(PID.TID 0000.0001) ctrl-wet 6: no recs for i =   117           0
(PID.TID 0000.0001) ctrl-wet 6: no recs for i =   118           0
(PID.TID 0000.0001) ctrl-wet 6: no recs for i =   119           0
(PID.TID 0000.0001) ctrl-wet 6: no recs for i =   120           0
(PID.TID 0000.0001) ctrl-wet 6: no recs for i =   121           0
(PID.TID 0000.0001) ctrl-wet 6: no recs for i =   122           0
(PID.TID 0000.0001) ctrl-wet 6: no recs for i =   123           0
(PID.TID 0000.0001) ctrl-wet 6: no recs for i =   124           0
(PID.TID 0000.0001) ctrl-wet 6: no recs for i =   125           0
(PID.TID 0000.0001) ctrl-wet 6: no recs for i =   126           0
(PID.TID 0000.0001) ctrl-wet 6: no recs for i =   127           0
(PID.TID 0000.0001) ctrl-wet 6: no recs for i =   128           0
(PID.TID 0000.0001) ctrl-wet 6: no recs for i =   129           0
(PID.TID 0000.0001) ctrl-wet 6: no recs for i =   130           0
(PID.TID 0000.0001) ctrl-wet 6: no recs for i =   131           0
(PID.TID 0000.0001) ctrl-wet 6: no recs for i =   132           0
(PID.TID 0000.0001) ctrl-wet 6: no recs for i =   133           0
(PID.TID 0000.0001) ctrl-wet 6: no recs for i =   134           0
(PID.TID 0000.0001) ctrl-wet 6: no recs for i =   135           0
(PID.TID 0000.0001) ctrl-wet 6: no recs for i =   136           0
(PID.TID 0000.0001) ctrl-wet 6: no recs for i =   137           0
(PID.TID 0000.0001) ctrl-wet 6: no recs for i =   138           0
(PID.TID 0000.0001) ctrl-wet 6: no recs for i =   139           0
(PID.TID 0000.0001) ctrl-wet 6: no recs for i =   140           0
(PID.TID 0000.0001) ctrl-wet 6: no recs for i =   141           0
(PID.TID 0000.0001) ctrl-wet 6: no recs for i =   142           0
(PID.TID 0000.0001) ctrl-wet 6: no recs for i =   143           0
(PID.TID 0000.0001) ctrl-wet 6: no recs for i =   144           0
(PID.TID 0000.0001) ctrl-wet 6: no recs for i =   145           0
(PID.TID 0000.0001) ctrl-wet 6: no recs for i =   146           0
(PID.TID 0000.0001) ctrl-wet 6: no recs for i =   147           0
(PID.TID 0000.0001) ctrl-wet 6: no recs for i =   148           0
(PID.TID 0000.0001) ctrl-wet 6: no recs for i =   149           0
(PID.TID 0000.0001) ctrl-wet 6: no recs for i =   150           0
(PID.TID 0000.0001) ctrl-wet 6: no recs for i =   151           0
(PID.TID 0000.0001) ctrl-wet 6: no recs for i =   152           0
(PID.TID 0000.0001) ctrl-wet 6: no recs for i =   153           0
(PID.TID 0000.0001) ctrl-wet 6: no recs for i =   154           0
(PID.TID 0000.0001) ctrl-wet 6: no recs for i =   155           0
(PID.TID 0000.0001) ctrl-wet 6: no recs for i =   156           0
(PID.TID 0000.0001) ctrl-wet 6: no recs for i =   157           0
(PID.TID 0000.0001) ctrl-wet 6: no recs for i =   158           0
(PID.TID 0000.0001) ctrl-wet 6: no recs for i =   159           0
(PID.TID 0000.0001) ctrl-wet 6: no recs for i =   160           0
(PID.TID 0000.0001) ctrl-wet 6: no recs for i =   161           0
(PID.TID 0000.0001) ctrl-wet 6: no recs for i =   162           0
(PID.TID 0000.0001) ctrl-wet 6: no recs for i =   163           0
(PID.TID 0000.0001) ctrl-wet 6: no recs for i =   164           0
(PID.TID 0000.0001) ctrl-wet 6: no recs for i =   165           0
(PID.TID 0000.0001) ctrl-wet 6: no recs for i =   166           0
(PID.TID 0000.0001) ctrl-wet 6: no recs for i =   167           0
(PID.TID 0000.0001) ctrl-wet 6: no recs for i =   168           0
(PID.TID 0000.0001) ctrl-wet 6: no recs for i =   169           0
(PID.TID 0000.0001) ctrl-wet 6: no recs for i =   170           0
(PID.TID 0000.0001) ctrl-wet 6: no recs for i =   171           0
(PID.TID 0000.0001) ctrl-wet 6: no recs for i =   172           0
(PID.TID 0000.0001) ctrl-wet 6: no recs for i =   173           0
(PID.TID 0000.0001) ctrl-wet 6: no recs for i =   174           0
(PID.TID 0000.0001) ctrl-wet 6: no recs for i =   175           0
(PID.TID 0000.0001) ctrl-wet 6: no recs for i =   176           0
(PID.TID 0000.0001) ctrl-wet 6: no recs for i =   177           0
(PID.TID 0000.0001) ctrl-wet 6: no recs for i =   178           0
(PID.TID 0000.0001) ctrl-wet 6: no recs for i =   179           0
(PID.TID 0000.0001) ctrl-wet 6: no recs for i =   180           0
(PID.TID 0000.0001) ctrl-wet 6: no recs for i =   181           0
(PID.TID 0000.0001) ctrl-wet 6: no recs for i =   182           0
(PID.TID 0000.0001) ctrl-wet 6: no recs for i =   183           0
(PID.TID 0000.0001) ctrl-wet 6: no recs for i =   184           0
(PID.TID 0000.0001) ctrl-wet 6: no recs for i =   185           0
(PID.TID 0000.0001) ctrl-wet 6: no recs for i =   186           0
(PID.TID 0000.0001) ctrl-wet 6: no recs for i =   187           0
(PID.TID 0000.0001) ctrl-wet 6: no recs for i =   188           0
(PID.TID 0000.0001) ctrl-wet 6: no recs for i =   189           0
(PID.TID 0000.0001) ctrl-wet 6: no recs for i =   190           0
(PID.TID 0000.0001) ctrl-wet 6: no recs for i =   191           0
(PID.TID 0000.0001) ctrl-wet 6: no recs for i =   192           0
(PID.TID 0000.0001) ctrl-wet 6: no recs for i =   193           0
(PID.TID 0000.0001) ctrl-wet 6: no recs for i =   194           0
(PID.TID 0000.0001) ctrl-wet 6: no recs for i =   195           0
(PID.TID 0000.0001) ctrl-wet 6: no recs for i =   196           0
(PID.TID 0000.0001) ctrl-wet 6: no recs for i =   197           0
(PID.TID 0000.0001) ctrl-wet 6: no recs for i =   198           0
(PID.TID 0000.0001) ctrl-wet 6: no recs for i =   199           0
(PID.TID 0000.0001) ctrl-wet 6: no recs for i =   200           0
(PID.TID 0000.0001) ctrl-wet 6: no recs for i =   201           1
(PID.TID 0000.0001) ctrl-wet 6: no recs for i =   202           1
(PID.TID 0000.0001) ctrl-wet 6: no recs for i =   203           1
(PID.TID 0000.0001) ctrl-wet 6: no recs for i =   204           0
(PID.TID 0000.0001) ctrl-wet 6: no recs for i =   205           0
(PID.TID 0000.0001) ctrl-wet 6: no recs for i =   206           0
(PID.TID 0000.0001) ctrl-wet 6: no recs for i =   207           0
(PID.TID 0000.0001) ctrl-wet 6: no recs for i =   208           0
(PID.TID 0000.0001) ctrl-wet 6: no recs for i =   209           0
(PID.TID 0000.0001) ctrl-wet 6: no recs for i =   210           0
(PID.TID 0000.0001) ctrl-wet 6: no recs for i =   211           0
(PID.TID 0000.0001) ctrl-wet 6: no recs for i =   212           0
(PID.TID 0000.0001) ctrl-wet 6: no recs for i =   213           0
(PID.TID 0000.0001) ctrl-wet 6: no recs for i =   214           0
(PID.TID 0000.0001) ctrl-wet 6: no recs for i =   215           0
(PID.TID 0000.0001) ctrl-wet 6: no recs for i =   216           0
(PID.TID 0000.0001) ctrl-wet 6: no recs for i =   217           0
(PID.TID 0000.0001) ctrl-wet 6: no recs for i =   218           0
(PID.TID 0000.0001) ctrl-wet 6: no recs for i =   219           0
(PID.TID 0000.0001) ctrl-wet 6: no recs for i =   220           0
(PID.TID 0000.0001) ctrl-wet 6: no recs for i =   221           0
(PID.TID 0000.0001) ctrl-wet 6: no recs for i =   222           0
(PID.TID 0000.0001) ctrl-wet 6: no recs for i =   223           0
(PID.TID 0000.0001) ctrl-wet 6: no recs for i =   224           0
(PID.TID 0000.0001) ctrl-wet 6: no recs for i =   225           0
(PID.TID 0000.0001) ctrl-wet 6: no recs for i =   226           0
(PID.TID 0000.0001) ctrl-wet 6: no recs for i =   227           0
(PID.TID 0000.0001) ctrl-wet 6: no recs for i =   228           0
(PID.TID 0000.0001) ctrl-wet 6: no recs for i =   229           0
(PID.TID 0000.0001) ctrl-wet 6: no recs for i =   230           0
(PID.TID 0000.0001) ctrl-wet 6: no recs for i =   231           0
(PID.TID 0000.0001) ctrl-wet 6: no recs for i =   232           0
(PID.TID 0000.0001) ctrl-wet 6: no recs for i =   233           0
(PID.TID 0000.0001) ctrl-wet 6: no recs for i =   234           0
(PID.TID 0000.0001) ctrl-wet 6: no recs for i =   235           0
(PID.TID 0000.0001) ctrl-wet 6: no recs for i =   236           0
(PID.TID 0000.0001) ctrl-wet 6: no recs for i =   237           0
(PID.TID 0000.0001) ctrl-wet 6: no recs for i =   238           0
(PID.TID 0000.0001) ctrl-wet 6: no recs for i =   239           0
(PID.TID 0000.0001) ctrl-wet 6: no recs for i =   240           0
(PID.TID 0000.0001) ctrl-wet 6: no recs for i =   241           0
(PID.TID 0000.0001) ctrl-wet 6: no recs for i =   242           0
(PID.TID 0000.0001) ctrl-wet 6: no recs for i =   243           0
(PID.TID 0000.0001) ctrl-wet 6: no recs for i =   244           0
(PID.TID 0000.0001) ctrl-wet 6: no recs for i =   245           0
(PID.TID 0000.0001) ctrl-wet 6: no recs for i =   246           0
(PID.TID 0000.0001) ctrl-wet 6: no recs for i =   247           0
(PID.TID 0000.0001) ctrl-wet 6: no recs for i =   248           0
(PID.TID 0000.0001) ctrl-wet 6: no recs for i =   249           0
(PID.TID 0000.0001) ctrl-wet 6: no recs for i =   250           0
(PID.TID 0000.0001) ctrl-wet 6: no recs for i =   251           0
(PID.TID 0000.0001) ctrl-wet 6: no recs for i =   252           0
(PID.TID 0000.0001) ctrl-wet 6: no recs for i =   253           0
(PID.TID 0000.0001) ctrl-wet 6: no recs for i =   254           0
(PID.TID 0000.0001) ctrl-wet 6: no recs for i =   255           0
(PID.TID 0000.0001) ctrl-wet 6: no recs for i =   256           0
(PID.TID 0000.0001) ctrl-wet 6: no recs for i =   257           0
(PID.TID 0000.0001) ctrl-wet 6: no recs for i =   258           0
(PID.TID 0000.0001) ctrl-wet 6: no recs for i =   259           0
(PID.TID 0000.0001) ctrl-wet 6: no recs for i =   260           0
(PID.TID 0000.0001) ctrl-wet 6: no recs for i =   261           0
(PID.TID 0000.0001) ctrl-wet 6: no recs for i =   262           0
(PID.TID 0000.0001) ctrl-wet 6: no recs for i =   263           0
(PID.TID 0000.0001) ctrl-wet 6: no recs for i =   264           0
(PID.TID 0000.0001) ctrl-wet 6: no recs for i =   265           0
(PID.TID 0000.0001) ctrl-wet 6: no recs for i =   266           0
(PID.TID 0000.0001) ctrl-wet 6: no recs for i =   267           0
(PID.TID 0000.0001) ctrl-wet 6: no recs for i =   268           0
(PID.TID 0000.0001) ctrl-wet 6: no recs for i =   269           0
(PID.TID 0000.0001) ctrl-wet 6: no recs for i =   270           0
(PID.TID 0000.0001) ctrl-wet 6: no recs for i =   271           0
(PID.TID 0000.0001) ctrl-wet 6: no recs for i =   272           0
(PID.TID 0000.0001) ctrl-wet 6: no recs for i =   273           0
(PID.TID 0000.0001) ctrl-wet 6: no recs for i =   274           0
(PID.TID 0000.0001) ctrl-wet 6: no recs for i =   275           0
(PID.TID 0000.0001) ctrl-wet 6: no recs for i =   276           0
(PID.TID 0000.0001) ctrl-wet 6: no recs for i =   277           0
(PID.TID 0000.0001) ctrl-wet 6: no recs for i =   278           0
(PID.TID 0000.0001) ctrl-wet 6: no recs for i =   279           0
(PID.TID 0000.0001) ctrl-wet 6: no recs for i =   280           0
(PID.TID 0000.0001) ctrl-wet 6: no recs for i =   281           0
(PID.TID 0000.0001) ctrl-wet 6: no recs for i =   282           0
(PID.TID 0000.0001) ctrl-wet 6: no recs for i =   283           0
(PID.TID 0000.0001) ctrl-wet 6: no recs for i =   284           0
(PID.TID 0000.0001) ctrl-wet 6: no recs for i =   285           0
(PID.TID 0000.0001) ctrl-wet 6: no recs for i =   286           0
(PID.TID 0000.0001) ctrl-wet 6: no recs for i =   287           0
(PID.TID 0000.0001) ctrl-wet 6: no recs for i =   288           0
(PID.TID 0000.0001) ctrl-wet 6: no recs for i =   289           0
(PID.TID 0000.0001) ctrl-wet 6: no recs for i =   290           0
(PID.TID 0000.0001) ctrl-wet 6: no recs for i =   291           0
(PID.TID 0000.0001) ctrl-wet 6: no recs for i =   292           0
(PID.TID 0000.0001) ctrl-wet 6: no recs for i =   293           0
(PID.TID 0000.0001) ctrl-wet 6: no recs for i =   294           0
(PID.TID 0000.0001) ctrl-wet 6: no recs for i =   295           0
(PID.TID 0000.0001) ctrl-wet 6: no recs for i =   296           0
(PID.TID 0000.0001) ctrl-wet 6: no recs for i =   297           0
(PID.TID 0000.0001) ctrl-wet 6: no recs for i =   298           0
(PID.TID 0000.0001) ctrl-wet 6: no recs for i =   299           0
(PID.TID 0000.0001) ctrl-wet 6: no recs for i =   300           0
(PID.TID 0000.0001) ctrl-wet 6: no recs for i =   301           1
(PID.TID 0000.0001) ctrl-wet 6: no recs for i =   302           2
(PID.TID 0000.0001) ctrl-wet 6: no recs for i =   303           6
(PID.TID 0000.0001) ctrl-wet 6: no recs for i =   304           6
(PID.TID 0000.0001) ctrl-wet 6: no recs for i =   305           6
(PID.TID 0000.0001) ctrl-wet 6: no recs for i =   306           0
(PID.TID 0000.0001) ctrl-wet 6: no recs for i =   307           0
(PID.TID 0000.0001) ctrl-wet 6: no recs for i =   308           0
(PID.TID 0000.0001) ctrl-wet 6: no recs for i =   309           0
(PID.TID 0000.0001) ctrl-wet 6: no recs for i =   310           0
(PID.TID 0000.0001) ctrl-wet 6: no recs for i =   311           0
(PID.TID 0000.0001) ctrl-wet 6: no recs for i =   312           0
(PID.TID 0000.0001) ctrl-wet 6: no recs for i =   313           0
(PID.TID 0000.0001) ctrl-wet 6: no recs for i =   314           0
(PID.TID 0000.0001) ctrl-wet 6: no recs for i =   315           0
(PID.TID 0000.0001) ctrl-wet 6: no recs for i =   316           0
(PID.TID 0000.0001) ctrl-wet 6: no recs for i =   317           0
(PID.TID 0000.0001) ctrl-wet 6: no recs for i =   318           0
(PID.TID 0000.0001) ctrl-wet 6: no recs for i =   319           0
(PID.TID 0000.0001) ctrl-wet 6: no recs for i =   320           0
(PID.TID 0000.0001) ctrl-wet 6: no recs for i =   321           0
(PID.TID 0000.0001) ctrl-wet 6: no recs for i =   322           0
(PID.TID 0000.0001) ctrl-wet 6: no recs for i =   323           0
(PID.TID 0000.0001) ctrl-wet 6: no recs for i =   324           0
(PID.TID 0000.0001) ctrl-wet 6: no recs for i =   325           0
(PID.TID 0000.0001) ctrl-wet 6: no recs for i =   326           0
(PID.TID 0000.0001) ctrl-wet 6: no recs for i =   327           0
(PID.TID 0000.0001) ctrl-wet 6: no recs for i =   328           0
(PID.TID 0000.0001) ctrl-wet 6: no recs for i =   329           0
(PID.TID 0000.0001) ctrl-wet 6: no recs for i =   330           0
(PID.TID 0000.0001) ctrl-wet 6: no recs for i =   331           0
(PID.TID 0000.0001) ctrl-wet 6: no recs for i =   332           0
(PID.TID 0000.0001) ctrl-wet 6: no recs for i =   333           0
(PID.TID 0000.0001) ctrl-wet 6: no recs for i =   334           0
(PID.TID 0000.0001) ctrl-wet 6: no recs for i =   335           0
(PID.TID 0000.0001) ctrl-wet 6: no recs for i =   336           0
(PID.TID 0000.0001) ctrl-wet 6: no recs for i =   337           0
(PID.TID 0000.0001) ctrl-wet 6: no recs for i =   338           0
(PID.TID 0000.0001) ctrl-wet 6: no recs for i =   339           0
(PID.TID 0000.0001) ctrl-wet 6: no recs for i =   340           0
(PID.TID 0000.0001) ctrl-wet 6: no recs for i =   341           0
(PID.TID 0000.0001) ctrl-wet 6: no recs for i =   342           0
(PID.TID 0000.0001) ctrl-wet 6: no recs for i =   343           0
(PID.TID 0000.0001) ctrl-wet 6: no recs for i =   344           0
(PID.TID 0000.0001) ctrl-wet 6: no recs for i =   345           0
(PID.TID 0000.0001) ctrl-wet 6: no recs for i =   346           0
(PID.TID 0000.0001) ctrl-wet 6: no recs for i =   347           0
(PID.TID 0000.0001) ctrl-wet 6: no recs for i =   348           0
(PID.TID 0000.0001) ctrl-wet 6: no recs for i =   349           0
(PID.TID 0000.0001) ctrl-wet 6: no recs for i =   350           0
(PID.TID 0000.0001) ctrl-wet 6: no recs for i =   351           0
(PID.TID 0000.0001) ctrl-wet 6: no recs for i =   352           0
(PID.TID 0000.0001) ctrl-wet 6: no recs for i =   353           0
(PID.TID 0000.0001) ctrl-wet 6: no recs for i =   354           0
(PID.TID 0000.0001) ctrl-wet 6: no recs for i =   355           0
(PID.TID 0000.0001) ctrl-wet 6: no recs for i =   356           0
(PID.TID 0000.0001) ctrl-wet 6: no recs for i =   357           0
(PID.TID 0000.0001) ctrl-wet 6: no recs for i =   358           0
(PID.TID 0000.0001) ctrl-wet 6: no recs for i =   359           0
(PID.TID 0000.0001) ctrl-wet 6: no recs for i =   360           0
(PID.TID 0000.0001) ctrl-wet 6: no recs for i =   361           0
(PID.TID 0000.0001) ctrl-wet 6: no recs for i =   362           0
(PID.TID 0000.0001) ctrl-wet 6: no recs for i =   363           0
(PID.TID 0000.0001) ctrl-wet 6: no recs for i =   364           0
(PID.TID 0000.0001) ctrl-wet 6: no recs for i =   365           0
(PID.TID 0000.0001) ctrl-wet 6: no recs for i =   366           0
(PID.TID 0000.0001) ctrl-wet 6: no recs for i =   367           0
(PID.TID 0000.0001) ctrl-wet 6: no recs for i =   368           0
(PID.TID 0000.0001) ctrl-wet 6: no recs for i =   369           0
(PID.TID 0000.0001) ctrl-wet 6: no recs for i =   370           0
(PID.TID 0000.0001) ctrl-wet 6: no recs for i =   371           0
(PID.TID 0000.0001) ctrl-wet 6: no recs for i =   372           0
(PID.TID 0000.0001) ctrl-wet 6: no recs for i =   373           0
(PID.TID 0000.0001) ctrl-wet 6: no recs for i =   374           0
(PID.TID 0000.0001) ctrl-wet 6: no recs for i =   375           0
(PID.TID 0000.0001) ctrl-wet 6: no recs for i =   376           0
(PID.TID 0000.0001) ctrl-wet 6: no recs for i =   377           0
(PID.TID 0000.0001) ctrl-wet 6: no recs for i =   378           0
(PID.TID 0000.0001) ctrl-wet 6: no recs for i =   379           0
(PID.TID 0000.0001) ctrl-wet 6: no recs for i =   380           0
(PID.TID 0000.0001) ctrl-wet 6: no recs for i =   381           0
(PID.TID 0000.0001) ctrl-wet 6: no recs for i =   382           0
(PID.TID 0000.0001) ctrl-wet 6: no recs for i =   383           0
(PID.TID 0000.0001) ctrl-wet 6: no recs for i =   384           0
(PID.TID 0000.0001) ctrl-wet 6: no recs for i =   385           0
(PID.TID 0000.0001) ctrl-wet 6: no recs for i =   386           0
(PID.TID 0000.0001) ctrl-wet 6: no recs for i =   387           0
(PID.TID 0000.0001) ctrl-wet 6: no recs for i =   388           0
(PID.TID 0000.0001) ctrl-wet 6: no recs for i =   389           0
(PID.TID 0000.0001) ctrl-wet 6: no recs for i =   390           0
(PID.TID 0000.0001) ctrl-wet 6: no recs for i =   391           0
(PID.TID 0000.0001) ctrl-wet 6: no recs for i =   392           0
(PID.TID 0000.0001) ctrl-wet 6: no recs for i =   393           0
(PID.TID 0000.0001) ctrl-wet 6: no recs for i =   394           0
(PID.TID 0000.0001) ctrl-wet 6: no recs for i =   395           0
(PID.TID 0000.0001) ctrl-wet 6: no recs for i =   396           0
(PID.TID 0000.0001) ctrl-wet 6: no recs for i =   397           0
(PID.TID 0000.0001) ctrl-wet 6: no recs for i =   398           0
(PID.TID 0000.0001) ctrl-wet 6: no recs for i =   399           0
(PID.TID 0000.0001) ctrl-wet 6: no recs for i =   400           0
(PID.TID 0000.0001) ctrl-wet 7: flux         21398
(PID.TID 0000.0001) ctrl-wet 8: atmos        21398
(PID.TID 0000.0001) ctrl-wet -------------------------------------------------
(PID.TID 0000.0001) ctrl-wet 13: global nvarlength for Nr =   50      650178
(PID.TID 0000.0001) ctrl-wet -------------------------------------------------
(PID.TID 0000.0001) ctrl-wet 14: global nWet C/S/W/V k=    1        4420        4232        4206           0
(PID.TID 0000.0001) ctrl-wet 14: global nWet C/S/W/V k=    2        4420        4232        4206           0
(PID.TID 0000.0001) ctrl-wet 14: global nWet C/S/W/V k=    3        4420        4232        4206           0
(PID.TID 0000.0001) ctrl-wet 14: global nWet C/S/W/V k=    4        4420        4232        4206           0
(PID.TID 0000.0001) ctrl-wet 14: global nWet C/S/W/V k=    5        4420        4232        4206           0
(PID.TID 0000.0001) ctrl-wet 14: global nWet C/S/W/V k=    6        4313        4125        4106           0
(PID.TID 0000.0001) ctrl-wet 14: global nWet C/S/W/V k=    7        4297        4110        4095           0
(PID.TID 0000.0001) ctrl-wet 14: global nWet C/S/W/V k=    8        4285        4097        4081           0
(PID.TID 0000.0001) ctrl-wet 14: global nWet C/S/W/V k=    9        4276        4090        4073           0
(PID.TID 0000.0001) ctrl-wet 14: global nWet C/S/W/V k=   10        4258        4074        4058           0
(PID.TID 0000.0001) ctrl-wet 14: global nWet C/S/W/V k=   11        4248        4065        4049           0
(PID.TID 0000.0001) ctrl-wet 14: global nWet C/S/W/V k=   12        4235        4051        4035           0
(PID.TID 0000.0001) ctrl-wet 14: global nWet C/S/W/V k=   13        4224        4039        4026           0
(PID.TID 0000.0001) ctrl-wet 14: global nWet C/S/W/V k=   14        4205        4026        4008           0
(PID.TID 0000.0001) ctrl-wet 14: global nWet C/S/W/V k=   15        4194        4015        3996           0
(PID.TID 0000.0001) ctrl-wet 14: global nWet C/S/W/V k=   16        4185        4005        3987           0
(PID.TID 0000.0001) ctrl-wet 14: global nWet C/S/W/V k=   17        4172        3993        3972           0
(PID.TID 0000.0001) ctrl-wet 14: global nWet C/S/W/V k=   18        4151        3972        3951           0
(PID.TID 0000.0001) ctrl-wet 14: global nWet C/S/W/V k=   19        4134        3954        3931           0
(PID.TID 0000.0001) ctrl-wet 14: global nWet C/S/W/V k=   20        4122        3942        3921           0
(PID.TID 0000.0001) ctrl-wet 14: global nWet C/S/W/V k=   21        4109        3929        3906           0
(PID.TID 0000.0001) ctrl-wet 14: global nWet C/S/W/V k=   22        4096        3916        3891           0
(PID.TID 0000.0001) ctrl-wet 14: global nWet C/S/W/V k=   23        4081        3899        3878           0
(PID.TID 0000.0001) ctrl-wet 14: global nWet C/S/W/V k=   24        4046        3863        3845           0
(PID.TID 0000.0001) ctrl-wet 14: global nWet C/S/W/V k=   25        4028        3847        3829           0
(PID.TID 0000.0001) ctrl-wet 14: global nWet C/S/W/V k=   26        4013        3831        3812           0
(PID.TID 0000.0001) ctrl-wet 14: global nWet C/S/W/V k=   27        4002        3819        3801           0
(PID.TID 0000.0001) ctrl-wet 14: global nWet C/S/W/V k=   28        3981        3798        3782           0
(PID.TID 0000.0001) ctrl-wet 14: global nWet C/S/W/V k=   29        3971        3786        3768           0
(PID.TID 0000.0001) ctrl-wet 14: global nWet C/S/W/V k=   30        3944        3756        3737           0
(PID.TID 0000.0001) ctrl-wet 14: global nWet C/S/W/V k=   31        3932        3746        3725           0
(PID.TID 0000.0001) ctrl-wet 14: global nWet C/S/W/V k=   32        3910        3723        3700           0
(PID.TID 0000.0001) ctrl-wet 14: global nWet C/S/W/V k=   33        3897        3709        3684           0
(PID.TID 0000.0001) ctrl-wet 14: global nWet C/S/W/V k=   34        3879        3689        3665           0
(PID.TID 0000.0001) ctrl-wet 14: global nWet C/S/W/V k=   35        3840        3652        3627           0
(PID.TID 0000.0001) ctrl-wet 14: global nWet C/S/W/V k=   36        3818        3628        3607           0
(PID.TID 0000.0001) ctrl-wet 14: global nWet C/S/W/V k=   37        3799        3605        3585           0
(PID.TID 0000.0001) ctrl-wet 14: global nWet C/S/W/V k=   38        3748        3547        3515           0
(PID.TID 0000.0001) ctrl-wet 14: global nWet C/S/W/V k=   39        3712        3509        3474           0
(PID.TID 0000.0001) ctrl-wet 14: global nWet C/S/W/V k=   40        3675        3469        3431           0
(PID.TID 0000.0001) ctrl-wet 14: global nWet C/S/W/V k=   41        3582        3369        3334           0
(PID.TID 0000.0001) ctrl-wet 14: global nWet C/S/W/V k=   42        3512        3293        3254           0
(PID.TID 0000.0001) ctrl-wet 14: global nWet C/S/W/V k=   43        3302        3039        3018           0
(PID.TID 0000.0001) ctrl-wet 14: global nWet C/S/W/V k=   44        3092        2794        2784           0
(PID.TID 0000.0001) ctrl-wet 14: global nWet C/S/W/V k=   45        2721        2419        2394           0
(PID.TID 0000.0001) ctrl-wet 14: global nWet C/S/W/V k=   46        2237        1936        1924           0
(PID.TID 0000.0001) ctrl-wet 14: global nWet C/S/W/V k=   47        1745        1471        1443           0
(PID.TID 0000.0001) ctrl-wet 14: global nWet C/S/W/V k=   48        1133         922         899           0
(PID.TID 0000.0001) ctrl-wet 14: global nWet C/S/W/V k=   49         483         345         328           0
(PID.TID 0000.0001) ctrl-wet 14: global nWet C/S/W/V k=   50          99          61          53           0
(PID.TID 0000.0001) ctrl-wet -------------------------------------------------
(PID.TID 0000.0001) ctrl-wet -------------------------------------------------
(PID.TID 0000.0001) ctrl-wet -------------------------------------------------
(PID.TID 0000.0001) ctrl_init: no. of control variables:            8
(PID.TID 0000.0001) ctrl_init: control vector length:          650178
(PID.TID 0000.0001) 
(PID.TID 0000.0001) // =======================================================
(PID.TID 0000.0001) // control vector configuration  >>> START <<<
(PID.TID 0000.0001) // =======================================================
(PID.TID 0000.0001) 
(PID.TID 0000.0001)  Total number of ocean points per tile:
(PID.TID 0000.0001)  --------------------------------------
(PID.TID 0000.0001)  snx*sny*nr =    12800
(PID.TID 0000.0001) 
(PID.TID 0000.0001)  Number of ocean points per tile:
(PID.TID 0000.0001)  --------------------------------
(PID.TID 0000.0001)  bi,bj,#(c/s/w): 0001 0001 010699 010456 010085
(PID.TID 0000.0001)  bi,bj,#(c/s/w): 0002 0001 006514 006422 005882
(PID.TID 0000.0001)  bi,bj,#(c/s/w): 0003 0001 009096 008680 008935
(PID.TID 0000.0001) 
(PID.TID 0000.0001)  Settings of generic controls:
(PID.TID 0000.0001)  -----------------------------
(PID.TID 0000.0001) 
(PID.TID 0000.0001)  ctrlUseGen  =     T /* use generic controls */
(PID.TID 0000.0001)  -> 3d control, genarr3d no.  1 is in use
(PID.TID 0000.0001)       file       = xx_theta
(PID.TID 0000.0001)       weight     = wt_theta.data
(PID.TID 0000.0001)  -> 3d control, genarr3d no.  2 is in use
(PID.TID 0000.0001)       file       = xx_salt
(PID.TID 0000.0001)       weight     = wt_salt.data
(PID.TID 0000.0001)  -> 3d control, genarr3d no.  3 is in use
(PID.TID 0000.0001)       file       = xx_kapgm
(PID.TID 0000.0001)       weight     = wt_kapgm.data
(PID.TID 0000.0001)  -> time variable 2D control, gentim2d no.  1 is in use
(PID.TID 0000.0001)       file       = xx_atempA
(PID.TID 0000.0001)       weight     = wt_atemp.data
(PID.TID 0000.0001)       period     =  00000000 020000
(PID.TID 0000.0001)       preprocess = docycle
(PID.TID 0000.0001)         param. (int.)=      1
(PID.TID 0000.0001)       preprocess = WC01
(PID.TID 0000.0001)  -> time variable 2D control, gentim2d no.  2 is in use
(PID.TID 0000.0001)       file       = xx_atempB
(PID.TID 0000.0001)       weight     = wt_atemp.data
(PID.TID 0000.0001)       period     =  00000000 020000
(PID.TID 0000.0001)       preprocess = docycle
(PID.TID 0000.0001)         param. (int.)=      2
(PID.TID 0000.0001)       preprocess = rmcycle
(PID.TID 0000.0001)         param. (int.)=      1
(PID.TID 0000.0001)       preprocess = WC01
(PID.TID 0000.0001)  -> time variable 2D control, gentim2d no.  3 is in use
(PID.TID 0000.0001)       file       = xx_atempC
(PID.TID 0000.0001)       weight     = wt_atemp.data
(PID.TID 0000.0001)       period     =  00000000 020000
(PID.TID 0000.0001)       preprocess = rmcycle
(PID.TID 0000.0001)         param. (int.)=      2
(PID.TID 0000.0001)       preprocess = WC01
(PID.TID 0000.0001)  -> time variable 2D control, gentim2d no.  4 is in use
(PID.TID 0000.0001)       file       = xx_hflux
(PID.TID 0000.0001)       weight     = wt_ones.bin
(PID.TID 0000.0001)       period     =  00000000 020000
(PID.TID 0000.0001)  -> time variable 2D control, gentim2d no.  5 is in use
(PID.TID 0000.0001)       file       = xx_sflux
(PID.TID 0000.0001)       weight     = wt_ones.bin
(PID.TID 0000.0001)       period     =  00000000 020000
(PID.TID 0000.0001) 
(PID.TID 0000.0001) // =======================================================
(PID.TID 0000.0001) // control vector configuration  >>> END <<<
(PID.TID 0000.0001) // =======================================================
(PID.TID 0000.0001) 
(PID.TID 0000.0001) INI_GLOBAL_DOMAIN: Found  19 CS-corner Pts in the domain
(PID.TID 0000.0001) %MON fCori_max                    =   1.4574827780704E-04
(PID.TID 0000.0001) %MON fCori_min                    =  -1.4574827780704E-04
(PID.TID 0000.0001) %MON fCori_mean                   =   1.1293772630057E-21
(PID.TID 0000.0001) %MON fCori_sd                     =   8.4202189509968E-05
(PID.TID 0000.0001) %MON fCoriG_max                   =   1.4584247033981E-04
(PID.TID 0000.0001) %MON fCoriG_min                   =  -1.4584247033981E-04
(PID.TID 0000.0001) %MON fCoriG_mean                  =   1.4117215787572E-20
(PID.TID 0000.0001) %MON fCoriG_sd                    =   8.4202189509968E-05
(PID.TID 0000.0001) %MON fCoriCos_max                 =   1.4580166994612E-04
(PID.TID 0000.0001) %MON fCoriCos_min                 =   5.2407700865903E-06
(PID.TID 0000.0001) %MON fCoriCos_mean                =   1.1514045869113E-04
(PID.TID 0000.0001) %MON fCoriCos_sd                  =   3.0375849106513E-05
(PID.TID 0000.0001) INI_CG2D: CG2D normalisation factor =  1.6658494934563737E-04
(PID.TID 0000.0001) INI_CG2D: cg2dTolerance = 1.683834825981835E-05 (Area=3.6388673751E+14)
(PID.TID 0000.0001) 
(PID.TID 0000.0001) // =======================================================
(PID.TID 0000.0001) // Model configuration
(PID.TID 0000.0001) // =======================================================
(PID.TID 0000.0001) //
(PID.TID 0000.0001) // "Physical" paramters ( PARM01 in namelist )
(PID.TID 0000.0001) //
(PID.TID 0000.0001) buoyancyRelation = /* Type of relation to get Buoyancy */
(PID.TID 0000.0001)               'OCEANIC'
(PID.TID 0000.0001)     ;
(PID.TID 0000.0001) fluidIsAir   =  /* fluid major constituent is Air */
(PID.TID 0000.0001)                   F
(PID.TID 0000.0001)     ;
(PID.TID 0000.0001) fluidIsWater =  /* fluid major constituent is Water */
(PID.TID 0000.0001)                   T
(PID.TID 0000.0001)     ;
(PID.TID 0000.0001) usingPCoords =  /* use p (or p*) vertical coordinate */
(PID.TID 0000.0001)                   F
(PID.TID 0000.0001)     ;
(PID.TID 0000.0001) usingZCoords =  /* use z (or z*) vertical coordinate */
(PID.TID 0000.0001)                   T
(PID.TID 0000.0001)     ;
(PID.TID 0000.0001) tRef =   /* Reference temperature profile ( oC or K ) */
(PID.TID 0000.0001)     3 @  2.300000000000000E+01,             /* K =  1:  3 */
(PID.TID 0000.0001)     3 @  2.200000000000000E+01,             /* K =  4:  6 */
(PID.TID 0000.0001)                 2.100000000000000E+01,      /* K =  7 */
(PID.TID 0000.0001)     2 @  2.000000000000000E+01,             /* K =  8:  9 */
(PID.TID 0000.0001)                 1.900000000000000E+01,      /* K = 10 */
(PID.TID 0000.0001)     2 @  1.800000000000000E+01,             /* K = 11: 12 */
(PID.TID 0000.0001)                 1.700000000000000E+01,      /* K = 13 */
(PID.TID 0000.0001)     2 @  1.600000000000000E+01,             /* K = 14: 15 */
(PID.TID 0000.0001)                 1.500000000000000E+01,      /* K = 16 */
(PID.TID 0000.0001)                 1.400000000000000E+01,      /* K = 17 */
(PID.TID 0000.0001)                 1.300000000000000E+01,      /* K = 18 */
(PID.TID 0000.0001)                 1.200000000000000E+01,      /* K = 19 */
(PID.TID 0000.0001)                 1.100000000000000E+01,      /* K = 20 */
(PID.TID 0000.0001)     2 @  9.000000000000000E+00,             /* K = 21: 22 */
(PID.TID 0000.0001)                 8.000000000000000E+00,      /* K = 23 */
(PID.TID 0000.0001)                 7.000000000000000E+00,      /* K = 24 */
(PID.TID 0000.0001)     2 @  6.000000000000000E+00,             /* K = 25: 26 */
(PID.TID 0000.0001)     2 @  5.000000000000000E+00,             /* K = 27: 28 */
(PID.TID 0000.0001)     3 @  4.000000000000000E+00,             /* K = 29: 31 */
(PID.TID 0000.0001)     3 @  3.000000000000000E+00,             /* K = 32: 34 */
(PID.TID 0000.0001)     4 @  2.000000000000000E+00,             /* K = 35: 38 */
(PID.TID 0000.0001)    12 @  1.000000000000000E+00              /* K = 39: 50 */
(PID.TID 0000.0001)     ;
(PID.TID 0000.0001) sRef =   /* Reference salinity profile ( psu ) */
(PID.TID 0000.0001)    50 @  3.450000000000000E+01              /* K =  1: 50 */
(PID.TID 0000.0001)     ;
(PID.TID 0000.0001) useStrainTensionVisc= /* Use StrainTension Form of Viscous Operator */
(PID.TID 0000.0001)                   F
(PID.TID 0000.0001)     ;
(PID.TID 0000.0001) useVariableVisc = /* Use variable horizontal viscosity */
(PID.TID 0000.0001)                   T
(PID.TID 0000.0001)     ;
(PID.TID 0000.0001) useHarmonicVisc = /* Use harmonic horizontal viscosity */
(PID.TID 0000.0001)                   T
(PID.TID 0000.0001)     ;
(PID.TID 0000.0001) useBiharmonicVisc= /* Use biharmonic horiz.  viscosity */
(PID.TID 0000.0001)                   F
(PID.TID 0000.0001)     ;
(PID.TID 0000.0001) useSmag3D = /* Use isotropic 3-D Smagorinsky viscosity */
(PID.TID 0000.0001)                   F
(PID.TID 0000.0001)     ;
(PID.TID 0000.0001) viscAh  =   /* Lateral harmonic viscosity ( m^2/s ) */
(PID.TID 0000.0001)                 1.000000000000000E+00
(PID.TID 0000.0001)     ;
(PID.TID 0000.0001) viscAhMax = /* Maximum lateral harmonic viscosity ( m^2/s ) */
(PID.TID 0000.0001)                 1.000000000000000E+21
(PID.TID 0000.0001)     ;
(PID.TID 0000.0001) viscAhGrid = /* Grid dependent lateral harmonic viscosity ( non-dim. ) */
(PID.TID 0000.0001)                 2.000000000000000E-02
(PID.TID 0000.0001)     ;
(PID.TID 0000.0001) useFullLeith = /* Use Full Form of Leith Viscosity on/off flag*/
(PID.TID 0000.0001)                   F
(PID.TID 0000.0001)     ;
(PID.TID 0000.0001) useAreaViscLength = /* Use area for visc length instead of geom. mean*/
(PID.TID 0000.0001)                   F
(PID.TID 0000.0001)     ;
(PID.TID 0000.0001) viscC2leith = /* Leith harmonic visc. factor (on grad(vort),non-dim.) */
(PID.TID 0000.0001)                 0.000000000000000E+00
(PID.TID 0000.0001)     ;
(PID.TID 0000.0001) viscC2leithD = /* Leith harmonic viscosity factor (on grad(div),non-dim.)*/
(PID.TID 0000.0001)                 0.000000000000000E+00
(PID.TID 0000.0001)     ;
(PID.TID 0000.0001) viscC2LeithQG = /* QG Leith harmonic viscosity factor (non-dim.)*/
(PID.TID 0000.0001)                 0.000000000000000E+00
(PID.TID 0000.0001)     ;
(PID.TID 0000.0001) viscC2smag = /* Smagorinsky harmonic viscosity factor (non-dim.) */
(PID.TID 0000.0001)                 0.000000000000000E+00
(PID.TID 0000.0001)     ;
(PID.TID 0000.0001) viscA4  =   /* Lateral biharmonic viscosity ( m^4/s ) */
(PID.TID 0000.0001)                 0.000000000000000E+00
(PID.TID 0000.0001)     ;
(PID.TID 0000.0001) viscA4Max = /* Maximum biharmonic viscosity ( m^2/s ) */
(PID.TID 0000.0001)                 1.000000000000000E+21
(PID.TID 0000.0001)     ;
(PID.TID 0000.0001) viscA4Grid = /* Grid dependent biharmonic viscosity ( non-dim. ) */
(PID.TID 0000.0001)                 0.000000000000000E+00
(PID.TID 0000.0001)     ;
(PID.TID 0000.0001) viscC4leith = /* Leith biharm viscosity factor (on grad(vort), non-dim.)*/
(PID.TID 0000.0001)                 0.000000000000000E+00
(PID.TID 0000.0001)     ;
(PID.TID 0000.0001) viscC4leithD = /* Leith biharm viscosity factor (on grad(div), non-dim.) */
(PID.TID 0000.0001)                 0.000000000000000E+00
(PID.TID 0000.0001)     ;
(PID.TID 0000.0001) viscC4Smag = /* Smagorinsky biharm viscosity factor (non-dim) */
(PID.TID 0000.0001)                 0.000000000000000E+00
(PID.TID 0000.0001)     ;
(PID.TID 0000.0001) no_slip_sides =  /* Viscous BCs: No-slip sides */
(PID.TID 0000.0001)                   T
(PID.TID 0000.0001)     ;
(PID.TID 0000.0001) sideDragFactor = /* side-drag scaling factor (non-dim) */
(PID.TID 0000.0001)                 2.000000000000000E+00
(PID.TID 0000.0001)     ;
(PID.TID 0000.0001) viscArNr = /* vertical profile of vertical viscosity ( m^2/s )*/
(PID.TID 0000.0001)    50 @  1.000000000000000E-03              /* K =  1: 50 */
(PID.TID 0000.0001)     ;
(PID.TID 0000.0001) no_slip_bottom =  /* Viscous BCs: No-slip bottom */
(PID.TID 0000.0001)                   T
(PID.TID 0000.0001)     ;
(PID.TID 0000.0001) bottomVisc_pCell = /* Partial-cell in bottom Visc. BC */
(PID.TID 0000.0001)                   F
(PID.TID 0000.0001)     ;
(PID.TID 0000.0001) bottomDragLinear = /* linear bottom-drag coefficient ( m/s ) */
(PID.TID 0000.0001)                 0.000000000000000E+00
(PID.TID 0000.0001)     ;
(PID.TID 0000.0001) bottomDragQuadratic = /* quadratic bottom-drag coefficient (-) */
(PID.TID 0000.0001)                 1.000000000000000E-03
(PID.TID 0000.0001)     ;
(PID.TID 0000.0001) selectBotDragQuadr = /* select quadratic bottom drag options */
(PID.TID 0000.0001)                       0
(PID.TID 0000.0001)     ;
(PID.TID 0000.0001) diffKhT =   /* Laplacian diffusion of heat laterally ( m^2/s ) */
(PID.TID 0000.0001)                 1.000000000000000E+01
(PID.TID 0000.0001)     ;
(PID.TID 0000.0001) diffK4T =   /* Biharmonic diffusion of heat laterally ( m^4/s ) */
(PID.TID 0000.0001)                 0.000000000000000E+00
(PID.TID 0000.0001)     ;
(PID.TID 0000.0001) diffKhS =   /* Laplacian diffusion of salt laterally ( m^2/s ) */
(PID.TID 0000.0001)                 1.000000000000000E+01
(PID.TID 0000.0001)     ;
(PID.TID 0000.0001) diffK4S =   /* Biharmonic diffusion of salt laterally ( m^4/s ) */
(PID.TID 0000.0001)                 0.000000000000000E+00
(PID.TID 0000.0001)     ;
(PID.TID 0000.0001) diffKrNrT = /* vertical profile of vertical diffusion of Temp ( m^2/s )*/
(PID.TID 0000.0001)    50 @  1.000000000000000E-05              /* K =  1: 50 */
(PID.TID 0000.0001)     ;
(PID.TID 0000.0001) diffKrNrS = /* vertical profile of vertical diffusion of Salt ( m^2/s )*/
(PID.TID 0000.0001)    50 @  1.000000000000000E-05              /* K =  1: 50 */
(PID.TID 0000.0001)     ;
(PID.TID 0000.0001) diffKrBL79surf = /* Surface diffusion for Bryan and Lewis 79 ( m^2/s ) */
(PID.TID 0000.0001)                 0.000000000000000E+00
(PID.TID 0000.0001)     ;
(PID.TID 0000.0001) diffKrBL79deep = /* Deep diffusion for Bryan and Lewis 1979 ( m^2/s ) */
(PID.TID 0000.0001)                 0.000000000000000E+00
(PID.TID 0000.0001)     ;
(PID.TID 0000.0001) diffKrBL79scl = /* Depth scale for Bryan and Lewis 1979 ( m ) */
(PID.TID 0000.0001)                 2.000000000000000E+02
(PID.TID 0000.0001)     ;
(PID.TID 0000.0001) diffKrBL79Ho = /* Turning depth for Bryan and Lewis 1979 ( m ) */
(PID.TID 0000.0001)                -2.000000000000000E+03
(PID.TID 0000.0001)     ;
(PID.TID 0000.0001) ivdc_kappa = /* Implicit Vertical Diffusivity for Convection ( m^2/s) */
(PID.TID 0000.0001)                 1.000000000000000E+01
(PID.TID 0000.0001)     ;
(PID.TID 0000.0001) hMixCriteria=  /* Criteria for mixed-layer diagnostic */
(PID.TID 0000.0001)                -8.000000000000000E-01
(PID.TID 0000.0001)     ;
(PID.TID 0000.0001) dRhoSmall =  /* Parameter for mixed-layer diagnostic */
(PID.TID 0000.0001)                 1.000000000000000E-06
(PID.TID 0000.0001)     ;
(PID.TID 0000.0001) hMixSmooth=  /* Smoothing parameter for mixed-layer diagnostic */
(PID.TID 0000.0001)                 0.000000000000000E+00
(PID.TID 0000.0001)     ;
(PID.TID 0000.0001) eosType =  /* Type of Equation of State */
(PID.TID 0000.0001)               'JMD95Z'
(PID.TID 0000.0001)     ;
(PID.TID 0000.0001) eosRefP0 = /* Reference atmospheric pressure for EOS ( Pa ) */
(PID.TID 0000.0001)                 1.013250000000000E+05
(PID.TID 0000.0001)     ;
(PID.TID 0000.0001) selectP_inEOS_Zc = /* select pressure to use in EOS (0,1,2,3) */
(PID.TID 0000.0001)                       0
(PID.TID 0000.0001)     0= -g*rhoConst*z ; 1= pRef (from tRef,sRef); 2= Hyd P ; 3= Hyd+NH P
(PID.TID 0000.0001)     ;
(PID.TID 0000.0001) surf_pRef = /* Surface reference pressure ( Pa ) */
(PID.TID 0000.0001)                 1.013250000000000E+05
(PID.TID 0000.0001)     ;
(PID.TID 0000.0001) HeatCapacity_Cp =  /* Specific heat capacity ( J/kg/K ) */
(PID.TID 0000.0001)                 3.994000000000000E+03
(PID.TID 0000.0001)     ;
(PID.TID 0000.0001) celsius2K = /* 0 degree Celsius converted to Kelvin ( K ) */
(PID.TID 0000.0001)                 2.731500000000000E+02
(PID.TID 0000.0001)     ;
(PID.TID 0000.0001) rhoConst  = /* Reference density (Boussinesq)  ( kg/m^3 ) */
(PID.TID 0000.0001)                 1.029000000000000E+03
(PID.TID 0000.0001)     ;
(PID.TID 0000.0001) rhoFacC = /* normalized Reference density @ cell-Center (-) */
(PID.TID 0000.0001)    50 @  1.000000000000000E+00              /* K =  1: 50 */
(PID.TID 0000.0001)     ;
(PID.TID 0000.0001) rhoFacF = /* normalized Reference density @ W-Interface (-) */
(PID.TID 0000.0001)    51 @  1.000000000000000E+00              /* K =  1: 51 */
(PID.TID 0000.0001)     ;
(PID.TID 0000.0001) rhoConstFresh = /* Fresh-water reference density ( kg/m^3 ) */
(PID.TID 0000.0001)                 1.000000000000000E+03
(PID.TID 0000.0001)     ;
(PID.TID 0000.0001) gravity =   /* Gravitational acceleration ( m/s^2 ) */
(PID.TID 0000.0001)                 9.810000000000000E+00
(PID.TID 0000.0001)     ;
(PID.TID 0000.0001) gBaro =   /* Barotropic gravity ( m/s^2 ) */
(PID.TID 0000.0001)                 9.810000000000000E+00
(PID.TID 0000.0001)     ;
(PID.TID 0000.0001) gravFacC = /* gravity factor (vs surf.) @ cell-Center (-) */
(PID.TID 0000.0001)    50 @  1.000000000000000E+00              /* K =  1: 50 */
(PID.TID 0000.0001)     ;
(PID.TID 0000.0001) gravFacF = /* gravity factor (vs surf.) @ W-Interface (-) */
(PID.TID 0000.0001)    51 @  1.000000000000000E+00              /* K =  1: 51 */
(PID.TID 0000.0001)     ;
(PID.TID 0000.0001) rotationPeriod =   /* Rotation Period ( s ) */
(PID.TID 0000.0001)                 8.616400000000000E+04
(PID.TID 0000.0001)     ;
(PID.TID 0000.0001) omega =   /* Angular velocity ( rad/s ) */
(PID.TID 0000.0001)                 7.292123516990375E-05
(PID.TID 0000.0001)     ;
(PID.TID 0000.0001) f0 =   /* Reference coriolis parameter ( 1/s ) */
(PID.TID 0000.0001)                 1.000000000000000E-04
(PID.TID 0000.0001)     ;
(PID.TID 0000.0001) beta =   /* Beta ( 1/(m.s) ) */
(PID.TID 0000.0001)                 9.999999999999999E-12
(PID.TID 0000.0001)     ;
(PID.TID 0000.0001) fPrime =   /* Second coriolis parameter ( 1/s ) */
(PID.TID 0000.0001)                 0.000000000000000E+00
(PID.TID 0000.0001)     ;
(PID.TID 0000.0001) rigidLid =   /* Rigid lid on/off flag */
(PID.TID 0000.0001)                   F
(PID.TID 0000.0001)     ;
(PID.TID 0000.0001) implicitFreeSurface =   /* Implicit free surface on/off flag */
(PID.TID 0000.0001)                   T
(PID.TID 0000.0001)     ;
(PID.TID 0000.0001) freeSurfFac =   /* Implicit free surface factor */
(PID.TID 0000.0001)                 1.000000000000000E+00
(PID.TID 0000.0001)     ;
(PID.TID 0000.0001) implicSurfPress =  /* Surface Pressure implicit factor (0-1)*/
(PID.TID 0000.0001)                 1.000000000000000E+00
(PID.TID 0000.0001)     ;
(PID.TID 0000.0001) implicDiv2DFlow =  /* Barot. Flow Div. implicit factor (0-1)*/
(PID.TID 0000.0001)                 1.000000000000000E+00
(PID.TID 0000.0001)     ;
(PID.TID 0000.0001) uniformLin_PhiSurf = /* use uniform Bo_surf on/off flag*/
(PID.TID 0000.0001)                   T
(PID.TID 0000.0001)     ;
(PID.TID 0000.0001) uniformFreeSurfLev = /* free-surface level-index is uniform */
(PID.TID 0000.0001)                   T
(PID.TID 0000.0001)     ;
(PID.TID 0000.0001) hFacMin =   /* minimum partial cell factor (hFac) */
(PID.TID 0000.0001)                 2.000000000000000E-01
(PID.TID 0000.0001)     ;
(PID.TID 0000.0001) hFacMinDr = /* minimum partial cell thickness ( m) */
(PID.TID 0000.0001)                 5.000000000000000E+00
(PID.TID 0000.0001)     ;
(PID.TID 0000.0001) exactConserv =  /* Exact Volume Conservation on/off flag*/
(PID.TID 0000.0001)                   T
(PID.TID 0000.0001)     ;
(PID.TID 0000.0001) linFSConserveTr = /* Tracer correction for Lin Free Surface on/off flag*/
(PID.TID 0000.0001)                   F
(PID.TID 0000.0001)     ;
(PID.TID 0000.0001) nonlinFreeSurf = /* Non-linear Free Surf. options (-1,0,1,2,3)*/
(PID.TID 0000.0001)                       4
(PID.TID 0000.0001)      -1,0= Off ; 1,2,3= On, 2=+rescale gU,gV, 3=+update cg2d solv.
(PID.TID 0000.0001)     ;
(PID.TID 0000.0001) hFacInf =   /* lower threshold for hFac (nonlinFreeSurf only)*/
(PID.TID 0000.0001)                 2.000000000000000E-01
(PID.TID 0000.0001)     ;
(PID.TID 0000.0001) hFacSup =   /* upper threshold for hFac (nonlinFreeSurf only)*/
(PID.TID 0000.0001)                 2.000000000000000E+00
(PID.TID 0000.0001)     ;
(PID.TID 0000.0001) select_rStar = /* r* Vertical coord. options (=0 r coord.; >0 uses r*)*/
(PID.TID 0000.0001)                       2
(PID.TID 0000.0001)     ;
(PID.TID 0000.0001) useRealFreshWaterFlux = /* Real Fresh Water Flux on/off flag*/
(PID.TID 0000.0001)                   T
(PID.TID 0000.0001)     ;
(PID.TID 0000.0001) temp_EvPrRn = /* Temp. of Evap/Prec/R (UNSET=use local T)(oC)*/
(PID.TID 0000.0001)                 1.234567000000000E+05
(PID.TID 0000.0001)     ;
(PID.TID 0000.0001) salt_EvPrRn = /* Salin. of Evap/Prec/R (UNSET=use local S)(psu)*/
(PID.TID 0000.0001)                 0.000000000000000E+00
(PID.TID 0000.0001)     ;
(PID.TID 0000.0001) selectAddFluid = /* option for mass source/sink of fluid (=0: off) */
(PID.TID 0000.0001)                       0
(PID.TID 0000.0001)     ;
(PID.TID 0000.0001) temp_addMass = /* Temp. of addMass array (UNSET=use local T)(oC)*/
(PID.TID 0000.0001)                 1.234567000000000E+05
(PID.TID 0000.0001)     ;
(PID.TID 0000.0001) salt_addMass = /* Salin. of addMass array (UNSET=use local S)(psu)*/
(PID.TID 0000.0001)                 0.000000000000000E+00
(PID.TID 0000.0001)     ;
(PID.TID 0000.0001) use3Dsolver = /* use 3-D pressure solver on/off flag */
(PID.TID 0000.0001)                   F
(PID.TID 0000.0001)     ;
(PID.TID 0000.0001) nonHydrostatic =  /* Non-Hydrostatic on/off flag */
(PID.TID 0000.0001)                   F
(PID.TID 0000.0001)     ;
(PID.TID 0000.0001) nh_Am2 = /* Non-Hydrostatic terms scaling factor */
(PID.TID 0000.0001)                 1.000000000000000E+00
(PID.TID 0000.0001)     ;
(PID.TID 0000.0001) implicitNHPress = /* Non-Hyd Pressure implicit factor (0-1)*/
(PID.TID 0000.0001)                 1.000000000000000E+00
(PID.TID 0000.0001)     ;
(PID.TID 0000.0001) selectNHfreeSurf = /* Non-Hyd (free-)Surface option */
(PID.TID 0000.0001)                       0
(PID.TID 0000.0001)     ;
(PID.TID 0000.0001) quasiHydrostatic = /* Quasi-Hydrostatic on/off flag */
(PID.TID 0000.0001)                   F
(PID.TID 0000.0001)     ;
(PID.TID 0000.0001) calc_wVelocity = /* vertical velocity calculation on/off flag */
(PID.TID 0000.0001)                   T
(PID.TID 0000.0001)     ;
(PID.TID 0000.0001) momStepping =  /* Momentum equation on/off flag */
(PID.TID 0000.0001)                   T
(PID.TID 0000.0001)     ;
(PID.TID 0000.0001) vectorInvariantMomentum= /* Vector-Invariant Momentum on/off */
(PID.TID 0000.0001)                   T
(PID.TID 0000.0001)     ;
(PID.TID 0000.0001) momAdvection =  /* Momentum advection on/off flag */
(PID.TID 0000.0001)                   T
(PID.TID 0000.0001)     ;
(PID.TID 0000.0001) momViscosity =  /* Momentum viscosity on/off flag */
(PID.TID 0000.0001)                   T
(PID.TID 0000.0001)     ;
(PID.TID 0000.0001) momImplVertAdv= /* Momentum implicit vert. advection on/off*/
(PID.TID 0000.0001)                   F
(PID.TID 0000.0001)     ;
(PID.TID 0000.0001) implicitViscosity = /* Implicit viscosity on/off flag */
(PID.TID 0000.0001)                   T
(PID.TID 0000.0001)     ;
(PID.TID 0000.0001) selectImplicitDrag= /* Implicit bot Drag options (0,1,2)*/
(PID.TID 0000.0001)                       0
(PID.TID 0000.0001)     0= Expl. ; 1= Impl. on provis. Vel ; 2= Fully Impl (with surf.P)
(PID.TID 0000.0001)     ;
(PID.TID 0000.0001) metricTerms =  /* metric-Terms on/off flag */
(PID.TID 0000.0001)                   F
(PID.TID 0000.0001)     ;
(PID.TID 0000.0001) useNHMTerms = /* Non-Hydrostatic Metric-Terms on/off */
(PID.TID 0000.0001)                   F
(PID.TID 0000.0001)     ;
(PID.TID 0000.0001) selectCoriMap = /* Coriolis Map options (0,1,2,3)*/
(PID.TID 0000.0001)                       2
(PID.TID 0000.0001)     0= f-Plane ; 1= Beta-Plane ; 2= Spherical ; 3= read from file
(PID.TID 0000.0001)     ;
(PID.TID 0000.0001) use3dCoriolis = /* 3-D Coriolis on/off flag */
(PID.TID 0000.0001)                   F
(PID.TID 0000.0001)     ;
(PID.TID 0000.0001) useCoriolis =  /* Coriolis on/off flag */
(PID.TID 0000.0001)                   T
(PID.TID 0000.0001)     ;
(PID.TID 0000.0001) useCDscheme =  /* CD scheme on/off flag */
(PID.TID 0000.0001)                   F
(PID.TID 0000.0001)     ;
(PID.TID 0000.0001) selectCoriScheme= /* Scheme selector for Coriolis-Term */
(PID.TID 0000.0001)                       1
(PID.TID 0000.0001)    = 0 : original discretization (simple averaging, no hFac)
(PID.TID 0000.0001)    = 1 : Wet-point averaging (Jamar & Ozer 1986)
(PID.TID 0000.0001)    = 2 : hFac weighted average (Angular Mom. conserving)
(PID.TID 0000.0001)    = 3 : energy conserving scheme using hFac weighted average
(PID.TID 0000.0001)     ;
(PID.TID 0000.0001) useAbsVorticity= /* V.I Works with f+zeta in Coriolis */
(PID.TID 0000.0001)                   F
(PID.TID 0000.0001)     ;
(PID.TID 0000.0001) selectVortScheme= /* V.I Scheme selector for Vorticity-Term */
(PID.TID 0000.0001)                       1
(PID.TID 0000.0001)    = 0 : enstrophy (Shallow-Water Eq.) conserving scheme by Sadourny, JAS 75
(PID.TID 0000.0001)    = 1 : same as 0 with modified hFac
(PID.TID 0000.0001)    = 2 : energy conserving scheme (used by Sadourny in JAS 75 paper)
(PID.TID 0000.0001)    = 3 : energy (general) and enstrophy (2D, nonDiv.) conserving scheme
(PID.TID 0000.0001)          from Sadourny (Burridge & Haseler, ECMWF Rep.4, 1977)
(PID.TID 0000.0001)     ;
(PID.TID 0000.0001) useJamartMomAdv= /* V.I Non-linear terms Jamart flag */
(PID.TID 0000.0001)                   F
(PID.TID 0000.0001)     ;
(PID.TID 0000.0001) upwindVorticity= /* V.I Upwind bias vorticity flag */
(PID.TID 0000.0001)                   F
(PID.TID 0000.0001)     ;
(PID.TID 0000.0001) highOrderVorticity= /* V.I High order vort. advect. flag */
(PID.TID 0000.0001)                   F
(PID.TID 0000.0001)     ;
(PID.TID 0000.0001) upwindShear= /* V.I Upwind vertical Shear advection flag */
(PID.TID 0000.0001)                   F
(PID.TID 0000.0001)     ;
(PID.TID 0000.0001) selectKEscheme= /* V.I Kinetic Energy scheme selector */
(PID.TID 0000.0001)                       0
(PID.TID 0000.0001)     ;
(PID.TID 0000.0001) momForcing =  /* Momentum forcing on/off flag */
(PID.TID 0000.0001)                   T
(PID.TID 0000.0001)     ;
(PID.TID 0000.0001) momTidalForcing = /* Momentum Tidal forcing on/off flag */
(PID.TID 0000.0001)                   T
(PID.TID 0000.0001)     ;
(PID.TID 0000.0001) momPressureForcing =  /* Momentum pressure term on/off flag */
(PID.TID 0000.0001)                   T
(PID.TID 0000.0001)     ;
(PID.TID 0000.0001) implicitIntGravWave= /* Implicit Internal Gravity Wave flag */
(PID.TID 0000.0001)                   F
(PID.TID 0000.0001)     ;
(PID.TID 0000.0001) staggerTimeStep =    /* Stagger time stepping on/off flag */
(PID.TID 0000.0001)                   T
(PID.TID 0000.0001)     ;
(PID.TID 0000.0001) doResetHFactors = /* reset thickness factors @ each time-step */
(PID.TID 0000.0001)                   T
(PID.TID 0000.0001)     ;
(PID.TID 0000.0001) multiDimAdvection =  /* enable/disable Multi-Dim Advection */
(PID.TID 0000.0001)                   T
(PID.TID 0000.0001)     ;
(PID.TID 0000.0001) useMultiDimAdvec =   /* Multi-Dim Advection is/is-not used */
(PID.TID 0000.0001)                   T
(PID.TID 0000.0001)     ;
(PID.TID 0000.0001) implicitDiffusion = /* Implicit Diffusion on/off flag */
(PID.TID 0000.0001)                   T
(PID.TID 0000.0001)     ;
(PID.TID 0000.0001) tempStepping =  /* Temperature equation on/off flag */
(PID.TID 0000.0001)                   T
(PID.TID 0000.0001)     ;
(PID.TID 0000.0001) tempAdvection = /* Temperature advection on/off flag */
(PID.TID 0000.0001)                   T
(PID.TID 0000.0001)     ;
(PID.TID 0000.0001) tempImplVertAdv = /* Temp. implicit vert. advection on/off */
(PID.TID 0000.0001)                   T
(PID.TID 0000.0001)     ;
(PID.TID 0000.0001) tempForcing  =  /* Temperature forcing on/off flag */
(PID.TID 0000.0001)                   T
(PID.TID 0000.0001)     ;
(PID.TID 0000.0001) balanceQnet  =  /* balance net heat-flux on/off flag */
(PID.TID 0000.0001)                   F
(PID.TID 0000.0001)     ;
(PID.TID 0000.0001) doThetaClimRelax = /* apply SST relaxation on/off flag */
(PID.TID 0000.0001)                   F
(PID.TID 0000.0001)     ;
(PID.TID 0000.0001) balanceThetaClimRelax= /* balance SST relaxation on/off flag */
(PID.TID 0000.0001)                   F
(PID.TID 0000.0001)     ;
(PID.TID 0000.0001) tempIsActiveTr = /* Temp. is a dynamically Active Tracer */
(PID.TID 0000.0001)                   T
(PID.TID 0000.0001)     ;
(PID.TID 0000.0001) saltStepping =  /* Salinity equation on/off flag */
(PID.TID 0000.0001)                   T
(PID.TID 0000.0001)     ;
(PID.TID 0000.0001) saltAdvection = /* Salinity advection on/off flag */
(PID.TID 0000.0001)                   T
(PID.TID 0000.0001)     ;
(PID.TID 0000.0001) saltImplVertAdv = /* Sali. implicit vert. advection on/off */
(PID.TID 0000.0001)                   T
(PID.TID 0000.0001)     ;
(PID.TID 0000.0001) saltForcing  =  /* Salinity forcing on/off flag */
(PID.TID 0000.0001)                   T
(PID.TID 0000.0001)     ;
(PID.TID 0000.0001) balanceEmPmR =  /* balance net fresh-water flux on/off flag */
(PID.TID 0000.0001)                   T
(PID.TID 0000.0001)     ;
(PID.TID 0000.0001) doSaltClimRelax = /* apply SSS relaxation on/off flag */
(PID.TID 0000.0001)                   T
(PID.TID 0000.0001)     ;
(PID.TID 0000.0001) balanceSaltClimRelax= /* balance SSS relaxation on/off flag */
(PID.TID 0000.0001)                   T
(PID.TID 0000.0001)     ;
(PID.TID 0000.0001) saltIsActiveTr = /* Salt  is a dynamically Active Tracer */
(PID.TID 0000.0001)                   T
(PID.TID 0000.0001)     ;
(PID.TID 0000.0001)  readBinaryPrec = /* Precision used for reading binary files */
(PID.TID 0000.0001)                      32
(PID.TID 0000.0001)     ;
(PID.TID 0000.0001) writeBinaryPrec = /* Precision used for writing binary files */
(PID.TID 0000.0001)                      32
(PID.TID 0000.0001)     ;
(PID.TID 0000.0001) balancePrintMean  =  /* print means for balancing fluxes */
(PID.TID 0000.0001)                   F
(PID.TID 0000.0001)     ;
(PID.TID 0000.0001)  rwSuffixType =   /* select format of mds file suffix */
(PID.TID 0000.0001)                       0
(PID.TID 0000.0001)    = 0 : myIter (I10.10) ;   = 1 : 100*myTime (100th sec) ;
(PID.TID 0000.0001)    = 2 : myTime (seconds);   = 3 : myTime/360 (10th of hr);
(PID.TID 0000.0001)    = 4 : myTime/3600 (hours)
(PID.TID 0000.0001)     ;
(PID.TID 0000.0001)  globalFiles = /* write "global" (=not per tile) files */
(PID.TID 0000.0001)                   F
(PID.TID 0000.0001)     ;
(PID.TID 0000.0001)  useSingleCpuIO = /* only master MPI process does I/O */
(PID.TID 0000.0001)                   T
(PID.TID 0000.0001)     ;
(PID.TID 0000.0001)  useSingleCpuInput = /* only master process reads input */
(PID.TID 0000.0001)                   T
(PID.TID 0000.0001)     ;
(PID.TID 0000.0001) /* debLev[*]  : level of debug & auxiliary message printing */
(PID.TID 0000.0001) debLevZero =  0 ; /* level of disabled aux. msg printing */
(PID.TID 0000.0001)    debLevA =  1 ; /* level of minimum  aux. msg printing */
(PID.TID 0000.0001)    debLevB =  2 ; /* level of low aux. print (report read-file opening)*/
(PID.TID 0000.0001)    debLevC =  3 ; /* level of moderate debug prt (most pkgs debug msg) */
(PID.TID 0000.0001)    debLevD =  4 ; /* level of enhanced debug prt (add DEBUG_STATS prt) */
(PID.TID 0000.0001)    debLevE =  5 ; /* level of extensive debug printing */
(PID.TID 0000.0001) debugLevel =  /* select debug printing level */
(PID.TID 0000.0001)                       1
(PID.TID 0000.0001)     ;
(PID.TID 0000.0001)  plotLevel =  /* select PLOT_FIELD printing level */
(PID.TID 0000.0001)                       1
(PID.TID 0000.0001)     ;
(PID.TID 0000.0001) //
(PID.TID 0000.0001) // Elliptic solver(s) paramters ( PARM02 in namelist )
(PID.TID 0000.0001) //
(PID.TID 0000.0001) cg2dMaxIters =   /* Upper limit on 2d con. grad iterations  */
(PID.TID 0000.0001)                     300
(PID.TID 0000.0001)     ;
(PID.TID 0000.0001) cg2dChkResFreq =   /* 2d con. grad convergence test frequency */
(PID.TID 0000.0001)                       1
(PID.TID 0000.0001)     ;
(PID.TID 0000.0001) cg2dUseMinResSol= /* use cg2d last-iter(=0) / min-resid.(=1) solution */
(PID.TID 0000.0001)                       0
(PID.TID 0000.0001)     ;
(PID.TID 0000.0001) cg2dTargetResidual =   /* 2d con. grad target residual  */
(PID.TID 0000.0001)                 1.000000000000000E-07
(PID.TID 0000.0001)     ;
(PID.TID 0000.0001) cg2dTargetResWunit =   /* CG2d target residual [W units] */
(PID.TID 0000.0001)                 1.000000000000000E-12
(PID.TID 0000.0001)     ;
(PID.TID 0000.0001) cg2dPreCondFreq =   /* Freq. for updating cg2d preconditioner */
(PID.TID 0000.0001)                       1
(PID.TID 0000.0001)     ;
(PID.TID 0000.0001) useSRCGSolver =  /* use single reduction CG solver(s) */
(PID.TID 0000.0001)                   F
(PID.TID 0000.0001)     ;
(PID.TID 0000.0001) printResidualFreq = /* Freq. for printing CG residual */
(PID.TID 0000.0001)                       0
(PID.TID 0000.0001)     ;
(PID.TID 0000.0001) //
(PID.TID 0000.0001) // Time stepping paramters ( PARM03 in namelist )
(PID.TID 0000.0001) //
(PID.TID 0000.0001) deltaTMom =   /* Momentum equation timestep ( s ) */
(PID.TID 0000.0001)                 3.600000000000000E+03
(PID.TID 0000.0001)     ;
(PID.TID 0000.0001) deltaTFreeSurf = /* FreeSurface equation timestep ( s ) */
(PID.TID 0000.0001)                 3.600000000000000E+03
(PID.TID 0000.0001)     ;
(PID.TID 0000.0001) dTtracerLev =  /* Tracer equation timestep ( s ) */
(PID.TID 0000.0001)    50 @  3.600000000000000E+03              /* K =  1: 50 */
(PID.TID 0000.0001)     ;
(PID.TID 0000.0001) deltaTClock  =   /* Model clock timestep ( s ) */
(PID.TID 0000.0001)                 3.600000000000000E+03
(PID.TID 0000.0001)     ;
(PID.TID 0000.0001) cAdjFreq =   /* Convective adjustment interval ( s ) */
(PID.TID 0000.0001)                 0.000000000000000E+00
(PID.TID 0000.0001)     ;
(PID.TID 0000.0001) momForcingOutAB = /* =1: take Momentum Forcing out of Adams-Bash. stepping */
(PID.TID 0000.0001)                       1
(PID.TID 0000.0001)     ;
(PID.TID 0000.0001) tracForcingOutAB = /* =1: take T,S,pTr Forcing out of Adams-Bash. stepping */
(PID.TID 0000.0001)                       1
(PID.TID 0000.0001)     ;
(PID.TID 0000.0001) momDissip_In_AB = /* put Dissipation Tendency in Adams-Bash. stepping */
(PID.TID 0000.0001)                   F
(PID.TID 0000.0001)     ;
(PID.TID 0000.0001) doAB_onGtGs = /* apply AB on Tendencies (rather than on T,S)*/
(PID.TID 0000.0001)                   F
(PID.TID 0000.0001)     ;
(PID.TID 0000.0001) abEps =   /* Adams-Bashforth-2 stabilizing weight */
(PID.TID 0000.0001)                 1.000000000000000E-02
(PID.TID 0000.0001)     ;
(PID.TID 0000.0001) alph_AB =   /* Adams-Bashforth-3 primary factor */
(PID.TID 0000.0001)                 5.000000000000000E-01
(PID.TID 0000.0001)     ;
(PID.TID 0000.0001) beta_AB =   /* Adams-Bashforth-3 secondary factor */
(PID.TID 0000.0001)                 2.811050000000000E-01
(PID.TID 0000.0001)     ;
(PID.TID 0000.0001) startFromPickupAB2= /* start from AB-2 pickup */
(PID.TID 0000.0001)                   F
(PID.TID 0000.0001)     ;
(PID.TID 0000.0001) applyExchUV_early = /* Apply EXCH to U,V earlier in time-step */
(PID.TID 0000.0001)                   F
(PID.TID 0000.0001)     ;
(PID.TID 0000.0001) pickupStrictlyMatch= /* stop if pickup do not strictly match */
(PID.TID 0000.0001)                   F
(PID.TID 0000.0001)     ;
(PID.TID 0000.0001) nIter0   =   /* Run starting timestep number */
(PID.TID 0000.0001)                       0
(PID.TID 0000.0001)     ;
(PID.TID 0000.0001) nTimeSteps = /* Number of timesteps */
(PID.TID 0000.0001)                       8
(PID.TID 0000.0001)     ;
(PID.TID 0000.0001) nEndIter =   /* Run ending timestep number */
(PID.TID 0000.0001)                       8
(PID.TID 0000.0001)     ;
(PID.TID 0000.0001) baseTime =   /* Model base time ( s ) */
(PID.TID 0000.0001)                 0.000000000000000E+00
(PID.TID 0000.0001)     ;
(PID.TID 0000.0001) startTime =  /* Run start time ( s ) */
(PID.TID 0000.0001)                 0.000000000000000E+00
(PID.TID 0000.0001)     ;
(PID.TID 0000.0001) endTime  =   /* Integration ending time ( s ) */
(PID.TID 0000.0001)                 2.880000000000000E+04
(PID.TID 0000.0001)     ;
(PID.TID 0000.0001) pChkPtFreq = /* Permanent restart/pickup file interval ( s ) */
(PID.TID 0000.0001)                 3.153600000000000E+07
(PID.TID 0000.0001)     ;
(PID.TID 0000.0001) chkPtFreq  = /* Rolling restart/pickup file interval ( s ) */
(PID.TID 0000.0001)                 3.153600000000000E+07
(PID.TID 0000.0001)     ;
(PID.TID 0000.0001) pickup_write_mdsio =   /* Model IO flag. */
(PID.TID 0000.0001)                   T
(PID.TID 0000.0001)     ;
(PID.TID 0000.0001) pickup_read_mdsio =   /* Model IO flag. */
(PID.TID 0000.0001)                   T
(PID.TID 0000.0001)     ;
(PID.TID 0000.0001) writePickupAtEnd =   /* Model IO flag. */
(PID.TID 0000.0001)                   T
(PID.TID 0000.0001)     ;
(PID.TID 0000.0001) dumpFreq =   /* Model state write out interval ( s ). */
(PID.TID 0000.0001)                 0.000000000000000E+00
(PID.TID 0000.0001)     ;
(PID.TID 0000.0001) dumpInitAndLast= /* write out Initial & Last iter. model state */
(PID.TID 0000.0001)                   T
(PID.TID 0000.0001)     ;
(PID.TID 0000.0001) snapshot_mdsio =   /* Model IO flag. */
(PID.TID 0000.0001)                   T
(PID.TID 0000.0001)     ;
(PID.TID 0000.0001) monitorFreq =   /* Monitor output interval ( s ). */
(PID.TID 0000.0001)                 7.200000000000000E+03
(PID.TID 0000.0001)     ;
(PID.TID 0000.0001) monitorSelect = /* select group of variables to monitor */
(PID.TID 0000.0001)                       3
(PID.TID 0000.0001)     ;
(PID.TID 0000.0001) monitor_stdio =   /* Model IO flag. */
(PID.TID 0000.0001)                   T
(PID.TID 0000.0001)     ;
(PID.TID 0000.0001) externForcingPeriod =   /* forcing period (s) */
(PID.TID 0000.0001)                 0.000000000000000E+00
(PID.TID 0000.0001)     ;
(PID.TID 0000.0001) externForcingCycle =   /* period of the cyle (s). */
(PID.TID 0000.0001)                 0.000000000000000E+00
(PID.TID 0000.0001)     ;
(PID.TID 0000.0001) tauThetaClimRelax =   /* relaxation time scale (s) */
(PID.TID 0000.0001)                 0.000000000000000E+00
(PID.TID 0000.0001)     ;
(PID.TID 0000.0001) tauSaltClimRelax =   /* relaxation time scale (s) */
(PID.TID 0000.0001)                 2.592000000000000E+07
(PID.TID 0000.0001)     ;
(PID.TID 0000.0001) latBandClimRelax =   /* max. Lat. where relaxation */
(PID.TID 0000.0001)                 1.800000000000000E+02
(PID.TID 0000.0001)     ;
(PID.TID 0000.0001) //
(PID.TID 0000.0001) // Gridding paramters ( PARM04 in namelist )
(PID.TID 0000.0001) //
(PID.TID 0000.0001) usingCartesianGrid = /* Cartesian coordinates flag ( True/False ) */
(PID.TID 0000.0001)                   F
(PID.TID 0000.0001)     ;
(PID.TID 0000.0001) usingCylindricalGrid = /* Cylindrical coordinates flag ( True/False ) */
(PID.TID 0000.0001)                   F
(PID.TID 0000.0001)     ;
(PID.TID 0000.0001) usingSphericalPolarGrid = /* Spherical coordinates flag ( True/False ) */
(PID.TID 0000.0001)                   F
(PID.TID 0000.0001)     ;
(PID.TID 0000.0001) usingCurvilinearGrid = /* Curvilinear coordinates flag ( True/False ) */
(PID.TID 0000.0001)                   T
(PID.TID 0000.0001)     ;
(PID.TID 0000.0001) useMin4hFacEdges = /* set hFacW,S as minimum of adjacent hFacC factor */
(PID.TID 0000.0001)                   F
(PID.TID 0000.0001)     ;
(PID.TID 0000.0001) interViscAr_pCell = /* account for partial-cell in interior vert. viscosity */
(PID.TID 0000.0001)                   F
(PID.TID 0000.0001)     ;
(PID.TID 0000.0001) interDiffKr_pCell = /* account for partial-cell in interior vert. diffusion */
(PID.TID 0000.0001)                   F
(PID.TID 0000.0001)     ;
(PID.TID 0000.0001) pCellMix_select = /* option to enhance mixing near surface & bottom */
(PID.TID 0000.0001)                       0
(PID.TID 0000.0001)     ;
(PID.TID 0000.0001) selectSigmaCoord = /* Hybrid-Sigma Vert. Coordinate option */
(PID.TID 0000.0001)                       0
(PID.TID 0000.0001)     ;
(PID.TID 0000.0001) rSigmaBnd = /* r/sigma transition ( units of r ==  m ) */
(PID.TID 0000.0001)                 1.234567000000000E+05
(PID.TID 0000.0001)     ;
(PID.TID 0000.0001) rkSign =   /* index orientation relative to vertical coordinate */
(PID.TID 0000.0001)                -1.000000000000000E+00
(PID.TID 0000.0001)     ;
(PID.TID 0000.0001) gravitySign = /* gravity orientation relative to vertical coordinate */
(PID.TID 0000.0001)                -1.000000000000000E+00
(PID.TID 0000.0001)     ;
(PID.TID 0000.0001) seaLev_Z =  /* reference height of sea-level [m] */
(PID.TID 0000.0001)                 0.000000000000000E+00
(PID.TID 0000.0001)     ;
(PID.TID 0000.0001) top_Pres =  /* reference pressure at the top [Pa] */
(PID.TID 0000.0001)                 0.000000000000000E+00
(PID.TID 0000.0001)     ;
(PID.TID 0000.0001) mass2rUnit = /* convert mass per unit area [kg/m2] to r-units [m] */
(PID.TID 0000.0001)                 9.718172983479105E-04
(PID.TID 0000.0001)     ;
(PID.TID 0000.0001) rUnit2mass = /* convert r-units [m] to mass per unit area [kg/m2] */
(PID.TID 0000.0001)                 1.029000000000000E+03
(PID.TID 0000.0001)     ;
(PID.TID 0000.0001) drC =   /* C spacing ( units of r ) */
(PID.TID 0000.0001)                 5.000000000000000E+00,      /* K =  1 */
(PID.TID 0000.0001)     6 @  1.000000000000000E+01,             /* K =  2:  7 */
(PID.TID 0000.0001)                 1.000500000000000E+01,      /* K =  8 */
(PID.TID 0000.0001)                 1.002000000000000E+01,      /* K =  9 */
(PID.TID 0000.0001)                 1.007000000000000E+01,      /* K = 10 */
(PID.TID 0000.0001)                 1.021500000000000E+01,      /* K = 11 */
(PID.TID 0000.0001)                 1.056000000000000E+01,      /* K = 12 */
(PID.TID 0000.0001)                 1.128000000000000E+01,      /* K = 13 */
(PID.TID 0000.0001)                 1.259000000000000E+01,      /* K = 14 */
(PID.TID 0000.0001)                 1.473000000000000E+01,      /* K = 15 */
(PID.TID 0000.0001)                 1.793000000000000E+01,      /* K = 16 */
(PID.TID 0000.0001)                 2.233500000000000E+01,      /* K = 17 */
(PID.TID 0000.0001)                 2.797500000000000E+01,      /* K = 18 */
(PID.TID 0000.0001)                 3.476000000000001E+01,      /* K = 19 */
(PID.TID 0000.0001)                 4.246000000000000E+01,      /* K = 20 */
(PID.TID 0000.0001)                 5.075000000000000E+01,      /* K = 21 */
(PID.TID 0000.0001)                 5.925000000000000E+01,      /* K = 22 */
(PID.TID 0000.0001)                 6.753999999999999E+01,      /* K = 23 */
(PID.TID 0000.0001)                 7.524000000000001E+01,      /* K = 24 */
(PID.TID 0000.0001)                 8.202500000000001E+01,      /* K = 25 */
(PID.TID 0000.0001)                 8.766500000000001E+01,      /* K = 26 */
(PID.TID 0000.0001)                 9.206999999999999E+01,      /* K = 27 */
(PID.TID 0000.0001)                 9.527000000000000E+01,      /* K = 28 */
(PID.TID 0000.0001)                 9.741499999999999E+01,      /* K = 29 */
(PID.TID 0000.0001)                 9.875000000000000E+01,      /* K = 30 */
(PID.TID 0000.0001)                 9.963000000000000E+01,      /* K = 31 */
(PID.TID 0000.0001)                 1.006700000000000E+02,      /* K = 32 */
(PID.TID 0000.0001)                 1.029450000000000E+02,      /* K = 33 */
(PID.TID 0000.0001)                 1.079450000000000E+02,      /* K = 34 */
(PID.TID 0000.0001)                 1.170800000000000E+02,      /* K = 35 */
(PID.TID 0000.0001)                 1.309600000000000E+02,      /* K = 36 */
(PID.TID 0000.0001)                 1.490150000000000E+02,      /* K = 37 */
(PID.TID 0000.0001)                 1.698850000000000E+02,      /* K = 38 */
(PID.TID 0000.0001)                 1.921900000000000E+02,      /* K = 39 */
(PID.TID 0000.0001)                 2.150250000000000E+02,      /* K = 40 */
(PID.TID 0000.0001)                 2.380000000000000E+02,      /* K = 41 */
(PID.TID 0000.0001)                 2.610000000000000E+02,      /* K = 42 */
(PID.TID 0000.0001)                 2.840000000000000E+02,      /* K = 43 */
(PID.TID 0000.0001)                 3.070000000000000E+02,      /* K = 44 */
(PID.TID 0000.0001)                 3.300000000000000E+02,      /* K = 45 */
(PID.TID 0000.0001)                 3.530000000000000E+02,      /* K = 46 */
(PID.TID 0000.0001)                 3.760000000000000E+02,      /* K = 47 */
(PID.TID 0000.0001)                 3.990000000000000E+02,      /* K = 48 */
(PID.TID 0000.0001)                 4.220000000000000E+02,      /* K = 49 */
(PID.TID 0000.0001)                 4.450000000000000E+02,      /* K = 50 */
(PID.TID 0000.0001)                 2.282500000000000E+02       /* K = 51 */
(PID.TID 0000.0001)     ;
(PID.TID 0000.0001) drF =   /* W spacing ( units of r ) */
(PID.TID 0000.0001)     7 @  1.000000000000000E+01,             /* K =  1:  7 */
(PID.TID 0000.0001)                 1.001000000000000E+01,      /* K =  8 */
(PID.TID 0000.0001)                 1.003000000000000E+01,      /* K =  9 */
(PID.TID 0000.0001)                 1.011000000000000E+01,      /* K = 10 */
(PID.TID 0000.0001)                 1.032000000000000E+01,      /* K = 11 */
(PID.TID 0000.0001)                 1.080000000000000E+01,      /* K = 12 */
(PID.TID 0000.0001)                 1.176000000000000E+01,      /* K = 13 */
(PID.TID 0000.0001)                 1.342000000000000E+01,      /* K = 14 */
(PID.TID 0000.0001)                 1.604000000000000E+01,      /* K = 15 */
(PID.TID 0000.0001)                 1.982000000000000E+01,      /* K = 16 */
(PID.TID 0000.0001)                 2.485000000000000E+01,      /* K = 17 */
(PID.TID 0000.0001)                 3.110000000000000E+01,      /* K = 18 */
(PID.TID 0000.0001)                 3.842000000000000E+01,      /* K = 19 */
(PID.TID 0000.0001)                 4.650000000000000E+01,      /* K = 20 */
(PID.TID 0000.0001)                 5.500000000000000E+01,      /* K = 21 */
(PID.TID 0000.0001)                 6.350000000000000E+01,      /* K = 22 */
(PID.TID 0000.0001)                 7.158000000000000E+01,      /* K = 23 */
(PID.TID 0000.0001)                 7.890000000000001E+01,      /* K = 24 */
(PID.TID 0000.0001)                 8.515000000000001E+01,      /* K = 25 */
(PID.TID 0000.0001)                 9.018000000000001E+01,      /* K = 26 */
(PID.TID 0000.0001)                 9.395999999999999E+01,      /* K = 27 */
(PID.TID 0000.0001)                 9.658000000000000E+01,      /* K = 28 */
(PID.TID 0000.0001)                 9.825000000000000E+01,      /* K = 29 */
(PID.TID 0000.0001)                 9.925000000000000E+01,      /* K = 30 */
(PID.TID 0000.0001)                 1.000100000000000E+02,      /* K = 31 */
(PID.TID 0000.0001)                 1.013300000000000E+02,      /* K = 32 */
(PID.TID 0000.0001)                 1.045600000000000E+02,      /* K = 33 */
(PID.TID 0000.0001)                 1.113300000000000E+02,      /* K = 34 */
(PID.TID 0000.0001)                 1.228300000000000E+02,      /* K = 35 */
(PID.TID 0000.0001)                 1.390900000000000E+02,      /* K = 36 */
(PID.TID 0000.0001)                 1.589400000000000E+02,      /* K = 37 */
(PID.TID 0000.0001)                 1.808300000000000E+02,      /* K = 38 */
(PID.TID 0000.0001)                 2.035500000000000E+02,      /* K = 39 */
(PID.TID 0000.0001)                 2.265000000000000E+02,      /* K = 40 */
(PID.TID 0000.0001)                 2.495000000000000E+02,      /* K = 41 */
(PID.TID 0000.0001)                 2.725000000000000E+02,      /* K = 42 */
(PID.TID 0000.0001)                 2.955000000000000E+02,      /* K = 43 */
(PID.TID 0000.0001)                 3.185000000000000E+02,      /* K = 44 */
(PID.TID 0000.0001)                 3.415000000000000E+02,      /* K = 45 */
(PID.TID 0000.0001)                 3.645000000000000E+02,      /* K = 46 */
(PID.TID 0000.0001)                 3.875000000000000E+02,      /* K = 47 */
(PID.TID 0000.0001)                 4.105000000000000E+02,      /* K = 48 */
(PID.TID 0000.0001)                 4.335000000000000E+02,      /* K = 49 */
(PID.TID 0000.0001)                 4.565000000000000E+02       /* K = 50 */
(PID.TID 0000.0001)     ;
(PID.TID 0000.0001) radius_fromHorizGrid = /* sphere Radius of input horiz. grid */
(PID.TID 0000.0001)                 6.370000000000000E+06
(PID.TID 0000.0001)     ;
(PID.TID 0000.0001) rSphere =  /* Radius ( ignored - cartesian, m - spherical ) */
(PID.TID 0000.0001)                 6.370000000000000E+06
(PID.TID 0000.0001)     ;
(PID.TID 0000.0001) deepAtmosphere = /* Deep/Shallow Atmosphere flag (True/False) */
(PID.TID 0000.0001)                   F
(PID.TID 0000.0001)     ;
(PID.TID 0000.0001) xC =  /* xC(:,1,:,1) : P-point X coord ( deg. or m if cartesian) */
(PID.TID 0000.0001)                -4.439521994760536E+01,      /* I =  1 */
(PID.TID 0000.0001)                -4.295641272275883E+01,      /* I =  2 */
(PID.TID 0000.0001)                -4.122055553388957E+01,      /* I =  3 */
(PID.TID 0000.0001)                -3.923446288487304E+01,      /* I =  4 */
(PID.TID 0000.0001)                -3.702585158682200E+01,      /* I =  5 */
(PID.TID 0000.0001)                -3.461179367094151E+01,      /* I =  6 */
(PID.TID 0000.0001)                -3.200434569041793E+01,      /* I =  7 */
(PID.TID 0000.0001)                -2.921355965632675E+01,      /* I =  8 */
(PID.TID 0000.0001)                -2.624932223028290E+01,      /* I =  9 */
(PID.TID 0000.0001)                -2.312261250426344E+01,      /* I = 10 */
(PID.TID 0000.0001)                -1.984640717127058E+01,      /* I = 11 */
(PID.TID 0000.0001)                -1.643630800555134E+01,      /* I = 12 */
(PID.TID 0000.0001)                -1.291089806302069E+01,      /* I = 13 */
(PID.TID 0000.0001)                -9.291807802719402E+00,      /* I = 14 */
(PID.TID 0000.0001)                -5.603475335822332E+00,      /* I = 15 */
(PID.TID 0000.0001)                -1.872608513033445E+00,      /* I = 16 */
(PID.TID 0000.0001)                 1.872608513033445E+00,      /* I = 17 */
(PID.TID 0000.0001)                 5.603475335822332E+00,      /* I = 18 */
(PID.TID 0000.0001)                 9.291807802719402E+00,      /* I = 19 */
(PID.TID 0000.0001)                 1.291089806302069E+01,      /* I = 20 */
(PID.TID 0000.0001)                 1.643630800555134E+01,      /* I = 21 */
(PID.TID 0000.0001)                 1.984640717127058E+01,      /* I = 22 */
(PID.TID 0000.0001)                 2.312261250426344E+01,      /* I = 23 */
(PID.TID 0000.0001)                 2.624932223028290E+01,      /* I = 24 */
(PID.TID 0000.0001)                 2.921355965632675E+01,      /* I = 25 */
(PID.TID 0000.0001)                 3.200434569041793E+01,      /* I = 26 */
(PID.TID 0000.0001)                 3.461179367094151E+01,      /* I = 27 */
(PID.TID 0000.0001)                 3.702585158682200E+01,      /* I = 28 */
(PID.TID 0000.0001)                 3.923446288487304E+01,      /* I = 29 */
(PID.TID 0000.0001)                 4.122055553388957E+01,      /* I = 30 */
(PID.TID 0000.0001)                 4.295641272275883E+01,      /* I = 31 */
(PID.TID 0000.0001)                 4.439521994760536E+01,      /* I = 32 */
(PID.TID 0000.0001)                -4.364490324992833E+01,      /* I = 33 */
(PID.TID 0000.0001)                -4.093268771156353E+01,      /* I = 34 */
(PID.TID 0000.0001)                -3.821449311785297E+01,      /* I = 35 */
(PID.TID 0000.0001)                -3.548661856694081E+01,      /* I = 36 */
(PID.TID 0000.0001)                -3.274577371214319E+01,      /* I = 37 */
(PID.TID 0000.0001)                -2.998921061819286E+01,      /* I = 38 */
(PID.TID 0000.0001)                -2.721482732194908E+01,      /* I = 39 */
(PID.TID 0000.0001)                -2.442123987207341E+01,      /* I = 40 */
(PID.TID 0000.0001)                -2.160782193728863E+01,      /* I = 41 */
(PID.TID 0000.0001)                -1.877471294668040E+01,      /* I = 42 */
(PID.TID 0000.0001)                -1.592279705047260E+01,      /* I = 43 */
(PID.TID 0000.0001)                -1.305365599512185E+01,      /* I = 44 */
(PID.TID 0000.0001)                -1.016949940404567E+01,      /* I = 45 */
(PID.TID 0000.0001)                -7.273076082698362E+00,      /* I = 46 */
(PID.TID 0000.0001)                -4.367569947789942E+00,      /* I = 47 */
(PID.TID 0000.0001)                -1.456484104946475E+00       /* I = 48 */
(PID.TID 0000.0001)     ;
(PID.TID 0000.0001) yC =  /* yC(1,:,1,:) : P-point Y coord ( deg. or m if cartesian) */
(PID.TID 0000.0001)                -3.497677942598243E+01,      /* J =  1 */
(PID.TID 0000.0001)                -3.374005967394886E+01,      /* J =  2 */
(PID.TID 0000.0001)                -3.220655175667454E+01,      /* J =  3 */
(PID.TID 0000.0001)                -3.045756348838641E+01,      /* J =  4 */
(PID.TID 0000.0001)                -2.853728129852918E+01,      /* J =  5 */
(PID.TID 0000.0001)                -2.647426640173173E+01,      /* J =  6 */
(PID.TID 0000.0001)                -2.428936657094636E+01,      /* J =  7 */
(PID.TID 0000.0001)                -2.199915808312262E+01,      /* J =  8 */
(PID.TID 0000.0001)                -1.961768597440146E+01,      /* J =  9 */
(PID.TID 0000.0001)                -1.715743888281371E+01,      /* J = 10 */
(PID.TID 0000.0001)                -1.462993396899330E+01,      /* J = 11 */
(PID.TID 0000.0001)                -1.204608340464756E+01,      /* J = 12 */
(PID.TID 0000.0001)                -9.416429130284818E+00,      /* J = 13 */
(PID.TID 0000.0001)                -6.751293662992216E+00,      /* J = 14 */
(PID.TID 0000.0001)                -4.060875511835959E+00,      /* J = 15 */
(PID.TID 0000.0001)                -1.355307764409121E+00       /* J = 16 */
(PID.TID 0000.0001)     ;
(PID.TID 0000.0001) rcoord = /* P-point R coordinate (  units of r ) */
(PID.TID 0000.0001)                -5.000000000000000E+00,      /* K =  1 */
(PID.TID 0000.0001)                -1.500000000000000E+01,      /* K =  2 */
(PID.TID 0000.0001)                -2.500000000000000E+01,      /* K =  3 */
(PID.TID 0000.0001)                -3.500000000000000E+01,      /* K =  4 */
(PID.TID 0000.0001)                -4.500000000000000E+01,      /* K =  5 */
(PID.TID 0000.0001)                -5.500000000000000E+01,      /* K =  6 */
(PID.TID 0000.0001)                -6.500000000000000E+01,      /* K =  7 */
(PID.TID 0000.0001)                -7.500500000000000E+01,      /* K =  8 */
(PID.TID 0000.0001)                -8.502499999999999E+01,      /* K =  9 */
(PID.TID 0000.0001)                -9.509500000000000E+01,      /* K = 10 */
(PID.TID 0000.0001)                -1.053100000000000E+02,      /* K = 11 */
(PID.TID 0000.0001)                -1.158700000000000E+02,      /* K = 12 */
(PID.TID 0000.0001)                -1.271500000000000E+02,      /* K = 13 */
(PID.TID 0000.0001)                -1.397400000000000E+02,      /* K = 14 */
(PID.TID 0000.0001)                -1.544700000000000E+02,      /* K = 15 */
(PID.TID 0000.0001)                -1.724000000000000E+02,      /* K = 16 */
(PID.TID 0000.0001)                -1.947350000000000E+02,      /* K = 17 */
(PID.TID 0000.0001)                -2.227100000000000E+02,      /* K = 18 */
(PID.TID 0000.0001)                -2.574700000000000E+02,      /* K = 19 */
(PID.TID 0000.0001)                -2.999300000000000E+02,      /* K = 20 */
(PID.TID 0000.0001)                -3.506800000000000E+02,      /* K = 21 */
(PID.TID 0000.0001)                -4.099300000000000E+02,      /* K = 22 */
(PID.TID 0000.0001)                -4.774700000000000E+02,      /* K = 23 */
(PID.TID 0000.0001)                -5.527100000000000E+02,      /* K = 24 */
(PID.TID 0000.0001)                -6.347350000000000E+02,      /* K = 25 */
(PID.TID 0000.0001)                -7.224000000000000E+02,      /* K = 26 */
(PID.TID 0000.0001)                -8.144700000000000E+02,      /* K = 27 */
(PID.TID 0000.0001)                -9.097400000000000E+02,      /* K = 28 */
(PID.TID 0000.0001)                -1.007155000000000E+03,      /* K = 29 */
(PID.TID 0000.0001)                -1.105905000000000E+03,      /* K = 30 */
(PID.TID 0000.0001)                -1.205535000000000E+03,      /* K = 31 */
(PID.TID 0000.0001)                -1.306205000000000E+03,      /* K = 32 */
(PID.TID 0000.0001)                -1.409150000000000E+03,      /* K = 33 */
(PID.TID 0000.0001)                -1.517095000000000E+03,      /* K = 34 */
(PID.TID 0000.0001)                -1.634175000000000E+03,      /* K = 35 */
(PID.TID 0000.0001)                -1.765135000000000E+03,      /* K = 36 */
(PID.TID 0000.0001)                -1.914150000000000E+03,      /* K = 37 */
(PID.TID 0000.0001)                -2.084035000000000E+03,      /* K = 38 */
(PID.TID 0000.0001)                -2.276225000000000E+03,      /* K = 39 */
(PID.TID 0000.0001)                -2.491250000000000E+03,      /* K = 40 */
(PID.TID 0000.0001)                -2.729250000000000E+03,      /* K = 41 */
(PID.TID 0000.0001)                -2.990250000000000E+03,      /* K = 42 */
(PID.TID 0000.0001)                -3.274250000000000E+03,      /* K = 43 */
(PID.TID 0000.0001)                -3.581250000000000E+03,      /* K = 44 */
(PID.TID 0000.0001)                -3.911250000000000E+03,      /* K = 45 */
(PID.TID 0000.0001)                -4.264250000000000E+03,      /* K = 46 */
(PID.TID 0000.0001)                -4.640250000000000E+03,      /* K = 47 */
(PID.TID 0000.0001)                -5.039250000000000E+03,      /* K = 48 */
(PID.TID 0000.0001)                -5.461250000000000E+03,      /* K = 49 */
(PID.TID 0000.0001)                -5.906250000000000E+03       /* K = 50 */
(PID.TID 0000.0001)     ;
(PID.TID 0000.0001) rF =   /* W-Interf. R coordinate (  units of r ) */
(PID.TID 0000.0001)                 0.000000000000000E+00,      /* K =  1 */
(PID.TID 0000.0001)                -1.000000000000000E+01,      /* K =  2 */
(PID.TID 0000.0001)                -2.000000000000000E+01,      /* K =  3 */
(PID.TID 0000.0001)                -3.000000000000000E+01,      /* K =  4 */
(PID.TID 0000.0001)                -4.000000000000000E+01,      /* K =  5 */
(PID.TID 0000.0001)                -5.000000000000000E+01,      /* K =  6 */
(PID.TID 0000.0001)                -6.000000000000000E+01,      /* K =  7 */
(PID.TID 0000.0001)                -7.000000000000000E+01,      /* K =  8 */
(PID.TID 0000.0001)                -8.001000000000001E+01,      /* K =  9 */
(PID.TID 0000.0001)                -9.004000000000001E+01,      /* K = 10 */
(PID.TID 0000.0001)                -1.001500000000000E+02,      /* K = 11 */
(PID.TID 0000.0001)                -1.104700000000000E+02,      /* K = 12 */
(PID.TID 0000.0001)                -1.212700000000000E+02,      /* K = 13 */
(PID.TID 0000.0001)                -1.330300000000000E+02,      /* K = 14 */
(PID.TID 0000.0001)                -1.464500000000000E+02,      /* K = 15 */
(PID.TID 0000.0001)                -1.624900000000000E+02,      /* K = 16 */
(PID.TID 0000.0001)                -1.823100000000000E+02,      /* K = 17 */
(PID.TID 0000.0001)                -2.071600000000000E+02,      /* K = 18 */
(PID.TID 0000.0001)                -2.382600000000000E+02,      /* K = 19 */
(PID.TID 0000.0001)                -2.766799999999999E+02,      /* K = 20 */
(PID.TID 0000.0001)                -3.231799999999999E+02,      /* K = 21 */
(PID.TID 0000.0001)                -3.781799999999999E+02,      /* K = 22 */
(PID.TID 0000.0001)                -4.416799999999999E+02,      /* K = 23 */
(PID.TID 0000.0001)                -5.132600000000000E+02,      /* K = 24 */
(PID.TID 0000.0001)                -5.921600000000000E+02,      /* K = 25 */
(PID.TID 0000.0001)                -6.773099999999999E+02,      /* K = 26 */
(PID.TID 0000.0001)                -7.674900000000000E+02,      /* K = 27 */
(PID.TID 0000.0001)                -8.614500000000000E+02,      /* K = 28 */
(PID.TID 0000.0001)                -9.580300000000001E+02,      /* K = 29 */
(PID.TID 0000.0001)                -1.056280000000000E+03,      /* K = 30 */
(PID.TID 0000.0001)                -1.155530000000000E+03,      /* K = 31 */
(PID.TID 0000.0001)                -1.255540000000000E+03,      /* K = 32 */
(PID.TID 0000.0001)                -1.356870000000000E+03,      /* K = 33 */
(PID.TID 0000.0001)                -1.461430000000000E+03,      /* K = 34 */
(PID.TID 0000.0001)                -1.572760000000000E+03,      /* K = 35 */
(PID.TID 0000.0001)                -1.695590000000000E+03,      /* K = 36 */
(PID.TID 0000.0001)                -1.834680000000000E+03,      /* K = 37 */
(PID.TID 0000.0001)                -1.993620000000000E+03,      /* K = 38 */
(PID.TID 0000.0001)                -2.174450000000000E+03,      /* K = 39 */
(PID.TID 0000.0001)                -2.378000000000000E+03,      /* K = 40 */
(PID.TID 0000.0001)                -2.604500000000000E+03,      /* K = 41 */
(PID.TID 0000.0001)                -2.854000000000000E+03,      /* K = 42 */
(PID.TID 0000.0001)                -3.126500000000000E+03,      /* K = 43 */
(PID.TID 0000.0001)                -3.422000000000000E+03,      /* K = 44 */
(PID.TID 0000.0001)                -3.740500000000000E+03,      /* K = 45 */
(PID.TID 0000.0001)                -4.082000000000000E+03,      /* K = 46 */
(PID.TID 0000.0001)                -4.446500000000000E+03,      /* K = 47 */
(PID.TID 0000.0001)                -4.834000000000000E+03,      /* K = 48 */
(PID.TID 0000.0001)                -5.244500000000000E+03,      /* K = 49 */
(PID.TID 0000.0001)                -5.678000000000000E+03,      /* K = 50 */
(PID.TID 0000.0001)                -6.134500000000000E+03       /* K = 51 */
(PID.TID 0000.0001)     ;
(PID.TID 0000.0001) deepFacC = /* deep-model grid factor @ cell-Center (-) */
(PID.TID 0000.0001)    50 @  1.000000000000000E+00              /* K =  1: 50 */
(PID.TID 0000.0001)     ;
(PID.TID 0000.0001) deepFacF = /* deep-model grid factor @ W-Interface (-) */
(PID.TID 0000.0001)    51 @  1.000000000000000E+00              /* K =  1: 51 */
(PID.TID 0000.0001)     ;
(PID.TID 0000.0001) rVel2wUnit = /* convert units: rVel -> wSpeed (=1 if z-coord)*/
(PID.TID 0000.0001)    51 @  1.000000000000000E+00              /* K =  1: 51 */
(PID.TID 0000.0001)     ;
(PID.TID 0000.0001) wUnit2rVel = /* convert units: wSpeed -> rVel (=1 if z-coord)*/
(PID.TID 0000.0001)    51 @  1.000000000000000E+00              /* K =  1: 51 */
(PID.TID 0000.0001)     ;
(PID.TID 0000.0001) dBdrRef = /* Vertical grad. of reference buoyancy [(m/s/r)^2] */
(PID.TID 0000.0001)     3 @  0.000000000000000E+00,             /* K =  1:  3 */
(PID.TID 0000.0001)                 2.706065538651213E-04,      /* K =  4 */
(PID.TID 0000.0001)     2 @  0.000000000000000E+00,             /* K =  5:  6 */
(PID.TID 0000.0001)                 2.632794562663490E-04,      /* K =  7 */
(PID.TID 0000.0001)                 2.554318021231947E-04,      /* K =  8 */
(PID.TID 0000.0001)                 0.000000000000000E+00,      /* K =  9 */
(PID.TID 0000.0001)                 2.461524232360561E-04,      /* K = 10 */
(PID.TID 0000.0001)                 2.348694431245364E-04,      /* K = 11 */
(PID.TID 0000.0001)                 0.000000000000000E+00,      /* K = 12 */
(PID.TID 0000.0001)                 2.056847859884566E-04,      /* K = 13 */
(PID.TID 0000.0001)                 1.777764506003336E-04,      /* K = 14 */
(PID.TID 0000.0001)                 0.000000000000000E+00,      /* K = 15 */
(PID.TID 0000.0001)                 1.203533867077665E-04,      /* K = 16 */
(PID.TID 0000.0001)                 9.288540355629585E-05,      /* K = 17 */
(PID.TID 0000.0001)                 7.115862770365155E-05,      /* K = 18 */
(PID.TID 0000.0001)                 5.484365820533800E-05,      /* K = 19 */
(PID.TID 0000.0001)                 4.290935507113214E-05,      /* K = 20 */
(PID.TID 0000.0001)                 6.658747741703880E-05,      /* K = 21 */
(PID.TID 0000.0001)                 0.000000000000000E+00,      /* K = 22 */
(PID.TID 0000.0001)                 2.323718420342036E-05,      /* K = 23 */
(PID.TID 0000.0001)                 1.974682037962757E-05,      /* K = 24 */
(PID.TID 0000.0001)                 1.709468932536602E-05,      /* K = 25 */
(PID.TID 0000.0001)                 0.000000000000000E+00,      /* K = 26 */
(PID.TID 0000.0001)                 1.455436545977052E-05,      /* K = 27 */
(PID.TID 0000.0001)                 0.000000000000000E+00,      /* K = 28 */
(PID.TID 0000.0001)                 1.315287111980149E-05,      /* K = 29 */
(PID.TID 0000.0001)     2 @  0.000000000000000E+00,             /* K = 30: 31 */
(PID.TID 0000.0001)                 1.240968507885233E-05,      /* K = 32 */
(PID.TID 0000.0001)     2 @  0.000000000000000E+00,             /* K = 33: 34 */
(PID.TID 0000.0001)                 1.045141607964570E-05,      /* K = 35 */
(PID.TID 0000.0001)     3 @  0.000000000000000E+00,             /* K = 36: 38 */
(PID.TID 0000.0001)                 6.628797113709505E-06,      /* K = 39 */
(PID.TID 0000.0001)    11 @  0.000000000000000E+00              /* K = 40: 50 */
(PID.TID 0000.0001)     ;
(PID.TID 0000.0001) rotateGrid = /* use rotated grid ( True/False ) */
(PID.TID 0000.0001)                   F
(PID.TID 0000.0001)     ;
(PID.TID 0000.0001) phiEuler = /* Euler angle, rotation about original z-coordinate [rad] */
(PID.TID 0000.0001)                 0.000000000000000E+00
(PID.TID 0000.0001)     ;
(PID.TID 0000.0001) thetaEuler = /* Euler angle, rotation about new x-coordinate [rad] */
(PID.TID 0000.0001)                 0.000000000000000E+00
(PID.TID 0000.0001)     ;
(PID.TID 0000.0001) psiEuler = /* Euler angle, rotation about new z-coordinate [rad] */
(PID.TID 0000.0001)                 0.000000000000000E+00
(PID.TID 0000.0001)     ;
(PID.TID 0000.0001) dxF =  /* dxF(:,1,:,1) ( units: m ) */
(PID.TID 0000.0001)                 1.202082051331828E+05,      /* I =  1 */
(PID.TID 0000.0001)                 1.563594089971120E+05,      /* I =  2 */
(PID.TID 0000.0001)                 1.835530058121492E+05,      /* I =  3 */
(PID.TID 0000.0001)                 2.045883481718707E+05,      /* I =  4 */
(PID.TID 0000.0001)                 2.218350349844185E+05,      /* I =  5 */
(PID.TID 0000.0001)                 2.364352994647058E+05,      /* I =  6 */
(PID.TID 0000.0001)                 2.490022710862746E+05,      /* I =  7 */
(PID.TID 0000.0001)                 2.598919724358304E+05,      /* I =  8 */
(PID.TID 0000.0001)                 2.693210245495156E+05,      /* I =  9 */
(PID.TID 0000.0001)                 2.774243179696503E+05,      /* I = 10 */
(PID.TID 0000.0001)                 2.842862532064524E+05,      /* I = 11 */
(PID.TID 0000.0001)                 2.899590699694043E+05,      /* I = 12 */
(PID.TID 0000.0001)                 2.944742915095688E+05,      /* I = 13 */
(PID.TID 0000.0001)                 2.978501920522794E+05,      /* I = 14 */
(PID.TID 0000.0001)                 3.000967749619962E+05,      /* I = 15 */
(PID.TID 0000.0001)     2 @  3.012190981969055E+05,             /* I = 16: 17 */
(PID.TID 0000.0001)                 3.000967749619962E+05,      /* I = 18 */
(PID.TID 0000.0001)                 2.978501920522794E+05,      /* I = 19 */
(PID.TID 0000.0001)                 2.944742915095688E+05,      /* I = 20 */
(PID.TID 0000.0001)                 2.899590699694043E+05,      /* I = 21 */
(PID.TID 0000.0001)                 2.842862532064524E+05,      /* I = 22 */
(PID.TID 0000.0001)                 2.774243179696503E+05,      /* I = 23 */
(PID.TID 0000.0001)                 2.693210245495156E+05,      /* I = 24 */
(PID.TID 0000.0001)                 2.598919724358304E+05,      /* I = 25 */
(PID.TID 0000.0001)                 2.490022710862746E+05,      /* I = 26 */
(PID.TID 0000.0001)                 2.364352994647058E+05,      /* I = 27 */
(PID.TID 0000.0001)                 2.218350349844185E+05,      /* I = 28 */
(PID.TID 0000.0001)                 2.045883481718707E+05,      /* I = 29 */
(PID.TID 0000.0001)                 1.835530058121492E+05,      /* I = 30 */
(PID.TID 0000.0001)                 1.563594089971120E+05,      /* I = 31 */
(PID.TID 0000.0001)                 1.202082051331828E+05,      /* I = 32 */
(PID.TID 0000.0001)                 3.012844832048790E+05,      /* I = 33 */
(PID.TID 0000.0001)                 3.017314519159184E+05,      /* I = 34 */
(PID.TID 0000.0001)                 3.026061571839506E+05,      /* I = 35 */
(PID.TID 0000.0001)                 3.038712499122208E+05,      /* I = 36 */
(PID.TID 0000.0001)                 3.054733694195115E+05,      /* I = 37 */
(PID.TID 0000.0001)                 3.073460170047538E+05,      /* I = 38 */
(PID.TID 0000.0001)                 3.094129252024922E+05,      /* I = 39 */
(PID.TID 0000.0001)                 3.115916488673079E+05,      /* I = 40 */
(PID.TID 0000.0001)                 3.137971415338805E+05,      /* I = 41 */
(PID.TID 0000.0001)                 3.159451387866950E+05,      /* I = 42 */
(PID.TID 0000.0001)                 3.179552321069062E+05,      /* I = 43 */
(PID.TID 0000.0001)                 3.197535693737994E+05,      /* I = 44 */
(PID.TID 0000.0001)                 3.212751560265627E+05,      /* I = 45 */
(PID.TID 0000.0001)                 3.224657535572011E+05,      /* I = 46 */
(PID.TID 0000.0001)                 3.232833825614068E+05,      /* I = 47 */
(PID.TID 0000.0001)                 3.236994750082736E+05       /* I = 48 */
(PID.TID 0000.0001)     ;
(PID.TID 0000.0001) dxF =  /* dxF(1,:,1,:) ( units: m ) */
(PID.TID 0000.0001)                 1.202082051331828E+05,      /* J =  1 */
(PID.TID 0000.0001)                 1.572908084538706E+05,      /* J =  2 */
(PID.TID 0000.0001)                 1.840412227747703E+05,      /* J =  3 */
(PID.TID 0000.0001)                 2.048868197919576E+05,      /* J =  4 */
(PID.TID 0000.0001)                 2.220405216043041E+05,      /* J =  5 */
(PID.TID 0000.0001)                 2.365892017348392E+05,      /* J =  6 */
(PID.TID 0000.0001)                 2.491250781852558E+05,      /* J =  7 */
(PID.TID 0000.0001)                 2.599949918261881E+05,      /* J =  8 */
(PID.TID 0000.0001)                 2.694110134598581E+05,      /* J =  9 */
(PID.TID 0000.0001)                 2.775055554645015E+05,      /* J = 10 */
(PID.TID 0000.0001)                 2.843615645344775E+05,      /* J = 11 */
(PID.TID 0000.0001)                 2.900303768613599E+05,      /* J = 12 */
(PID.TID 0000.0001)                 2.945429307892709E+05,      /* J = 13 */
(PID.TID 0000.0001)                 2.979171143158405E+05,      /* J = 14 */
(PID.TID 0000.0001)                 3.001626787528886E+05,      /* J = 15 */
(PID.TID 0000.0001)                 3.012844832048790E+05       /* J = 16 */
(PID.TID 0000.0001)     ;
(PID.TID 0000.0001) dyF =  /* dyF(:,1,:,1) ( units: m ) */
(PID.TID 0000.0001)                 1.202082051331828E+05,      /* I =  1 */
(PID.TID 0000.0001)                 1.572908084538706E+05,      /* I =  2 */
(PID.TID 0000.0001)                 1.840412227747703E+05,      /* I =  3 */
(PID.TID 0000.0001)                 2.048868197919576E+05,      /* I =  4 */
(PID.TID 0000.0001)                 2.220405216043041E+05,      /* I =  5 */
(PID.TID 0000.0001)                 2.365892017348392E+05,      /* I =  6 */
(PID.TID 0000.0001)                 2.491250781852558E+05,      /* I =  7 */
(PID.TID 0000.0001)                 2.599949918261881E+05,      /* I =  8 */
(PID.TID 0000.0001)                 2.694110134598581E+05,      /* I =  9 */
(PID.TID 0000.0001)                 2.775055554645015E+05,      /* I = 10 */
(PID.TID 0000.0001)                 2.843615645344775E+05,      /* I = 11 */
(PID.TID 0000.0001)                 2.900303768613599E+05,      /* I = 12 */
(PID.TID 0000.0001)                 2.945429307892709E+05,      /* I = 13 */
(PID.TID 0000.0001)                 2.979171143158405E+05,      /* I = 14 */
(PID.TID 0000.0001)                 3.001626787528886E+05,      /* I = 15 */
(PID.TID 0000.0001)     2 @  3.012844832048790E+05,             /* I = 16: 17 */
(PID.TID 0000.0001)                 3.001626787528886E+05,      /* I = 18 */
(PID.TID 0000.0001)                 2.979171143158405E+05,      /* I = 19 */
(PID.TID 0000.0001)                 2.945429307892709E+05,      /* I = 20 */
(PID.TID 0000.0001)                 2.900303768613599E+05,      /* I = 21 */
(PID.TID 0000.0001)                 2.843615645344775E+05,      /* I = 22 */
(PID.TID 0000.0001)                 2.775055554645015E+05,      /* I = 23 */
(PID.TID 0000.0001)                 2.694110134598581E+05,      /* I = 24 */
(PID.TID 0000.0001)                 2.599949918261881E+05,      /* I = 25 */
(PID.TID 0000.0001)                 2.491250781852558E+05,      /* I = 26 */
(PID.TID 0000.0001)                 2.365892017348392E+05,      /* I = 27 */
(PID.TID 0000.0001)                 2.220405216043041E+05,      /* I = 28 */
(PID.TID 0000.0001)                 2.048868197919576E+05,      /* I = 29 */
(PID.TID 0000.0001)                 1.840412227747703E+05,      /* I = 30 */
(PID.TID 0000.0001)                 1.572908084538706E+05,      /* I = 31 */
(PID.TID 0000.0001)                 1.202082051331828E+05,      /* I = 32 */
(PID.TID 0000.0001)                 3.012190981969055E+05,      /* I = 33 */
(PID.TID 0000.0001)                 3.016675528553907E+05,      /* I = 34 */
(PID.TID 0000.0001)                 3.025451404065074E+05,      /* I = 35 */
(PID.TID 0000.0001)                 3.038143430929827E+05,      /* I = 36 */
(PID.TID 0000.0001)                 3.054215712079756E+05,      /* I = 37 */
(PID.TID 0000.0001)                 3.073000594641912E+05,      /* I = 38 */
(PID.TID 0000.0001)                 3.093732589453273E+05,      /* I = 39 */
(PID.TID 0000.0001)                 3.115584474900804E+05,      /* I = 40 */
(PID.TID 0000.0001)                 3.137703202065625E+05,      /* I = 41 */
(PID.TID 0000.0001)                 3.159243816151009E+05,      /* I = 42 */
(PID.TID 0000.0001)                 3.179400237154126E+05,      /* I = 43 */
(PID.TID 0000.0001)                 3.197432274745630E+05,      /* I = 44 */
(PID.TID 0000.0001)                 3.212688630823077E+05,      /* I = 45 */
(PID.TID 0000.0001)                 3.224625867238719E+05,      /* I = 46 */
(PID.TID 0000.0001)                 3.232823418193404E+05,      /* I = 47 */
(PID.TID 0000.0001)                 3.236994750082736E+05       /* I = 48 */
(PID.TID 0000.0001)     ;
(PID.TID 0000.0001) dyF =  /* dyF(1,:,1,:) ( units: m ) */
(PID.TID 0000.0001)                 1.202082051331828E+05,      /* J =  1 */
(PID.TID 0000.0001)                 1.563594089971120E+05,      /* J =  2 */
(PID.TID 0000.0001)                 1.835530058121492E+05,      /* J =  3 */
(PID.TID 0000.0001)                 2.045883481718707E+05,      /* J =  4 */
(PID.TID 0000.0001)                 2.218350349844185E+05,      /* J =  5 */
(PID.TID 0000.0001)                 2.364352994647058E+05,      /* J =  6 */
(PID.TID 0000.0001)                 2.490022710862746E+05,      /* J =  7 */
(PID.TID 0000.0001)                 2.598919724358304E+05,      /* J =  8 */
(PID.TID 0000.0001)                 2.693210245495156E+05,      /* J =  9 */
(PID.TID 0000.0001)                 2.774243179696503E+05,      /* J = 10 */
(PID.TID 0000.0001)                 2.842862532064524E+05,      /* J = 11 */
(PID.TID 0000.0001)                 2.899590699694043E+05,      /* J = 12 */
(PID.TID 0000.0001)                 2.944742915095688E+05,      /* J = 13 */
(PID.TID 0000.0001)                 2.978501920522794E+05,      /* J = 14 */
(PID.TID 0000.0001)                 3.000967749619962E+05,      /* J = 15 */
(PID.TID 0000.0001)                 3.012190981969055E+05       /* J = 16 */
(PID.TID 0000.0001)     ;
(PID.TID 0000.0001) dxG =  /* dxG(:,1,:,1) ( units: m ) */
(PID.TID 0000.0001)                 1.009837800879055E+05,      /* I =  1 */
(PID.TID 0000.0001)                 1.534505834330338E+05,      /* I =  2 */
(PID.TID 0000.0001)                 1.823321598773926E+05,      /* I =  3 */
(PID.TID 0000.0001)                 2.038999045536999E+05,      /* I =  4 */
(PID.TID 0000.0001)                 2.213884732245467E+05,      /* I =  5 */
(PID.TID 0000.0001)                 2.361211699596122E+05,      /* I =  6 */
(PID.TID 0000.0001)                 2.487693460283865E+05,      /* I =  7 */
(PID.TID 0000.0001)                 2.597126963772147E+05,      /* I =  8 */
(PID.TID 0000.0001)                 2.691790288994575E+05,      /* I =  9 */
(PID.TID 0000.0001)                 2.773091043277394E+05,      /* I = 10 */
(PID.TID 0000.0001)                 2.841906470085516E+05,      /* I = 11 */
(PID.TID 0000.0001)                 2.898778860929753E+05,      /* I = 12 */
(PID.TID 0000.0001)                 2.944035815526416E+05,      /* I = 13 */
(PID.TID 0000.0001)                 2.977867909042096E+05,      /* I = 14 */
(PID.TID 0000.0001)                 3.000380090330854E+05,      /* I = 15 */
(PID.TID 0000.0001)     2 @  3.011625828699101E+05,             /* I = 16: 17 */
(PID.TID 0000.0001)                 3.000380090330854E+05,      /* I = 18 */
(PID.TID 0000.0001)                 2.977867909042096E+05,      /* I = 19 */
(PID.TID 0000.0001)                 2.944035815526416E+05,      /* I = 20 */
(PID.TID 0000.0001)                 2.898778860929753E+05,      /* I = 21 */
(PID.TID 0000.0001)                 2.841906470085516E+05,      /* I = 22 */
(PID.TID 0000.0001)                 2.773091043277394E+05,      /* I = 23 */
(PID.TID 0000.0001)                 2.691790288994575E+05,      /* I = 24 */
(PID.TID 0000.0001)                 2.597126963772147E+05,      /* I = 25 */
(PID.TID 0000.0001)                 2.487693460283865E+05,      /* I = 26 */
(PID.TID 0000.0001)                 2.361211699596122E+05,      /* I = 27 */
(PID.TID 0000.0001)                 2.213884732245467E+05,      /* I = 28 */
(PID.TID 0000.0001)                 2.038999045536999E+05,      /* I = 29 */
(PID.TID 0000.0001)                 1.823321598773926E+05,      /* I = 30 */
(PID.TID 0000.0001)                 1.534505834330338E+05,      /* I = 31 */
(PID.TID 0000.0001)                 1.009837800879055E+05,      /* I = 32 */
(PID.TID 0000.0001)                 3.014246674484008E+05,      /* I = 33 */
(PID.TID 0000.0001)                 3.018694497480782E+05,      /* I = 34 */
(PID.TID 0000.0001)                 3.027399364062562E+05,      /* I = 35 */
(PID.TID 0000.0001)                 3.039990657490951E+05,      /* I = 36 */
(PID.TID 0000.0001)                 3.055938607351786E+05,      /* I = 37 */
(PID.TID 0000.0001)                 3.074582577767738E+05,      /* I = 38 */
(PID.TID 0000.0001)                 3.095164322685570E+05,      /* I = 39 */
(PID.TID 0000.0001)                 3.116863538419811E+05,      /* I = 40 */
(PID.TID 0000.0001)                 3.138833384868975E+05,      /* I = 41 */
(PID.TID 0000.0001)                 3.160234197751047E+05,      /* I = 42 */
(PID.TID 0000.0001)                 3.180264208293543E+05,      /* I = 43 */
(PID.TID 0000.0001)                 3.198186602283748E+05,      /* I = 44 */
(PID.TID 0000.0001)                 3.213352627063766E+05,      /* I = 45 */
(PID.TID 0000.0001)                 3.225220686282585E+05,      /* I = 46 */
(PID.TID 0000.0001)                 3.233371474853745E+05,      /* I = 47 */
(PID.TID 0000.0001)                 3.237519587277332E+05       /* I = 48 */
(PID.TID 0000.0001)     ;
(PID.TID 0000.0001) dxG =  /* dxG(1,:,1,:) ( units: m ) */
(PID.TID 0000.0001)                 1.009837800879055E+05,      /* J =  1 */
(PID.TID 0000.0001)                 1.403701524205398E+05,      /* J =  2 */
(PID.TID 0000.0001)                 1.716197227386011E+05,      /* J =  3 */
(PID.TID 0000.0001)                 1.950254041626018E+05,      /* J =  4 */
(PID.TID 0000.0001)                 2.138410773065497E+05,      /* J =  5 */
(PID.TID 0000.0001)                 2.295958105911512E+05,      /* J =  6 */
(PID.TID 0000.0001)                 2.430829951739083E+05,      /* J =  7 */
(PID.TID 0000.0001)                 2.547526806712889E+05,      /* J =  8 */
(PID.TID 0000.0001)                 2.648750305193301E+05,      /* J =  9 */
(PID.TID 0000.0001)                 2.736173771018112E+05,      /* J = 10 */
(PID.TID 0000.0001)                 2.810845823202647E+05,      /* J = 11 */
(PID.TID 0000.0001)                 2.873420591008078E+05,      /* J = 12 */
(PID.TID 0000.0001)                 2.924298293668651E+05,      /* J = 13 */
(PID.TID 0000.0001)                 2.963715635865306E+05,      /* J = 14 */
(PID.TID 0000.0001)                 2.991805843171258E+05,      /* J = 15 */
(PID.TID 0000.0001)                 3.008638765647886E+05       /* J = 16 */
(PID.TID 0000.0001)     ;
(PID.TID 0000.0001) dyG =  /* dyG(:,1,:,1) ( units: m ) */
(PID.TID 0000.0001)                 1.009837800879055E+05,      /* I =  1 */
(PID.TID 0000.0001)                 1.403701524205398E+05,      /* I =  2 */
(PID.TID 0000.0001)                 1.716197227386011E+05,      /* I =  3 */
(PID.TID 0000.0001)                 1.950254041626018E+05,      /* I =  4 */
(PID.TID 0000.0001)                 2.138410773065497E+05,      /* I =  5 */
(PID.TID 0000.0001)                 2.295958105911512E+05,      /* I =  6 */
(PID.TID 0000.0001)                 2.430829951739083E+05,      /* I =  7 */
(PID.TID 0000.0001)                 2.547526806712889E+05,      /* I =  8 */
(PID.TID 0000.0001)                 2.648750305193301E+05,      /* I =  9 */
(PID.TID 0000.0001)                 2.736173771018112E+05,      /* I = 10 */
(PID.TID 0000.0001)                 2.810845823202647E+05,      /* I = 11 */
(PID.TID 0000.0001)                 2.873420591008078E+05,      /* I = 12 */
(PID.TID 0000.0001)                 2.924298293668651E+05,      /* I = 13 */
(PID.TID 0000.0001)                 2.963715635865306E+05,      /* I = 14 */
(PID.TID 0000.0001)                 2.991805843171258E+05,      /* I = 15 */
(PID.TID 0000.0001)                 3.008638765647886E+05,      /* I = 16 */
(PID.TID 0000.0001)                 3.014246674484008E+05,      /* I = 17 */
(PID.TID 0000.0001)                 3.008638765647886E+05,      /* I = 18 */
(PID.TID 0000.0001)                 2.991805843171258E+05,      /* I = 19 */
(PID.TID 0000.0001)                 2.963715635865306E+05,      /* I = 20 */
(PID.TID 0000.0001)                 2.924298293668651E+05,      /* I = 21 */
(PID.TID 0000.0001)                 2.873420591008078E+05,      /* I = 22 */
(PID.TID 0000.0001)                 2.810845823202647E+05,      /* I = 23 */
(PID.TID 0000.0001)                 2.736173771018112E+05,      /* I = 24 */
(PID.TID 0000.0001)                 2.648750305193301E+05,      /* I = 25 */
(PID.TID 0000.0001)                 2.547526806712889E+05,      /* I = 26 */
(PID.TID 0000.0001)                 2.430829951739083E+05,      /* I = 27 */
(PID.TID 0000.0001)                 2.295958105911512E+05,      /* I = 28 */
(PID.TID 0000.0001)                 2.138410773065497E+05,      /* I = 29 */
(PID.TID 0000.0001)                 1.950254041626018E+05,      /* I = 30 */
(PID.TID 0000.0001)                 1.716197227386011E+05,      /* I = 31 */
(PID.TID 0000.0001)                 1.403701524205398E+05,      /* I = 32 */
(PID.TID 0000.0001)                 3.011625828699101E+05,      /* I = 33 */
(PID.TID 0000.0001)                 3.013880313304323E+05,      /* I = 34 */
(PID.TID 0000.0001)                 3.020546438966793E+05,      /* I = 35 */
(PID.TID 0000.0001)                 3.031337933484788E+05,      /* I = 36 */
(PID.TID 0000.0001)                 3.045796060304602E+05,      /* I = 37 */
(PID.TID 0000.0001)                 3.063315047037455E+05,      /* I = 38 */
(PID.TID 0000.0001)                 3.083173884297931E+05,      /* I = 39 */
(PID.TID 0000.0001)                 3.104571666747115E+05,      /* I = 40 */
(PID.TID 0000.0001)                 3.126663860714039E+05,      /* I = 41 */
(PID.TID 0000.0001)                 3.148597400258051E+05,      /* I = 42 */
(PID.TID 0000.0001)                 3.169543146344334E+05,      /* I = 43 */
(PID.TID 0000.0001)                 3.188724835261090E+05,      /* I = 44 */
(PID.TID 0000.0001)                 3.205444100809708E+05,      /* I = 45 */
(PID.TID 0000.0001)                 3.219101453522735E+05,      /* I = 46 */
(PID.TID 0000.0001)                 3.229213257990267E+05,      /* I = 47 */
(PID.TID 0000.0001)                 3.235424806617432E+05       /* I = 48 */
(PID.TID 0000.0001)     ;
(PID.TID 0000.0001) dyG =  /* dyG(1,:,1,:) ( units: m ) */
(PID.TID 0000.0001)                 1.009837800879055E+05,      /* J =  1 */
(PID.TID 0000.0001)                 1.534505834330338E+05,      /* J =  2 */
(PID.TID 0000.0001)                 1.823321598773926E+05,      /* J =  3 */
(PID.TID 0000.0001)                 2.038999045536999E+05,      /* J =  4 */
(PID.TID 0000.0001)                 2.213884732245467E+05,      /* J =  5 */
(PID.TID 0000.0001)                 2.361211699596122E+05,      /* J =  6 */
(PID.TID 0000.0001)                 2.487693460283865E+05,      /* J =  7 */
(PID.TID 0000.0001)                 2.597126963772147E+05,      /* J =  8 */
(PID.TID 0000.0001)                 2.691790288994575E+05,      /* J =  9 */
(PID.TID 0000.0001)                 2.773091043277394E+05,      /* J = 10 */
(PID.TID 0000.0001)                 2.841906470085516E+05,      /* J = 11 */
(PID.TID 0000.0001)                 2.898778860929753E+05,      /* J = 12 */
(PID.TID 0000.0001)                 2.944035815526416E+05,      /* J = 13 */
(PID.TID 0000.0001)                 2.977867909042096E+05,      /* J = 14 */
(PID.TID 0000.0001)                 3.000380090330854E+05,      /* J = 15 */
(PID.TID 0000.0001)                 3.011625828699101E+05       /* J = 16 */
(PID.TID 0000.0001)     ;
(PID.TID 0000.0001) dxC =  /* dxC(:,1,:,1) ( units: m ) */
(PID.TID 0000.0001)                 1.114203141013064E+05,      /* I =  1 */
(PID.TID 0000.0001)                 1.391343389937106E+05,      /* I =  2 */
(PID.TID 0000.0001)                 1.709574999026266E+05,      /* I =  3 */
(PID.TID 0000.0001)                 1.946503699269892E+05,      /* I =  4 */
(PID.TID 0000.0001)                 2.135964483342134E+05,      /* I =  5 */
(PID.TID 0000.0001)                 2.294195678257306E+05,      /* I =  6 */
(PID.TID 0000.0001)                 2.429464709770498E+05,      /* I =  7 */
(PID.TID 0000.0001)                 2.546408290696998E+05,      /* I =  8 */
(PID.TID 0000.0001)                 2.647791839299727E+05,      /* I =  9 */
(PID.TID 0000.0001)                 2.735321911346108E+05,      /* I = 10 */
(PID.TID 0000.0001)                 2.810065951609633E+05,      /* I = 11 */
(PID.TID 0000.0001)                 2.872689479506990E+05,      /* I = 12 */
(PID.TID 0000.0001)                 2.923599955312932E+05,      /* I = 13 */
(PID.TID 0000.0001)                 2.963038832565530E+05,      /* I = 14 */
(PID.TID 0000.0001)                 2.991142470004740E+05,      /* I = 15 */
(PID.TID 0000.0001)                 3.007982711627968E+05,      /* I = 16 */
(PID.TID 0000.0001)                 3.013593857228136E+05,      /* I = 17 */
(PID.TID 0000.0001)                 3.007982711627968E+05,      /* I = 18 */
(PID.TID 0000.0001)                 2.991142470004740E+05,      /* I = 19 */
(PID.TID 0000.0001)                 2.963038832565530E+05,      /* I = 20 */
(PID.TID 0000.0001)                 2.923599955312932E+05,      /* I = 21 */
(PID.TID 0000.0001)                 2.872689479506990E+05,      /* I = 22 */
(PID.TID 0000.0001)                 2.810065951609633E+05,      /* I = 23 */
(PID.TID 0000.0001)                 2.735321911346108E+05,      /* I = 24 */
(PID.TID 0000.0001)                 2.647791839299727E+05,      /* I = 25 */
(PID.TID 0000.0001)                 2.546408290696998E+05,      /* I = 26 */
(PID.TID 0000.0001)                 2.429464709770498E+05,      /* I = 27 */
(PID.TID 0000.0001)                 2.294195678257306E+05,      /* I = 28 */
(PID.TID 0000.0001)                 2.135964483342134E+05,      /* I = 29 */
(PID.TID 0000.0001)                 1.946503699269892E+05,      /* I = 30 */
(PID.TID 0000.0001)                 1.709574999026266E+05,      /* I = 31 */
(PID.TID 0000.0001)                 1.391343389937106E+05,      /* I = 32 */
(PID.TID 0000.0001)                 3.012281885409289E+05,      /* I = 33 */
(PID.TID 0000.0001)                 3.014528555318499E+05,      /* I = 34 */
(PID.TID 0000.0001)                 3.021172674809921E+05,      /* I = 35 */
(PID.TID 0000.0001)                 3.031928954490276E+05,      /* I = 36 */
(PID.TID 0000.0001)                 3.046340673197290E+05,      /* I = 37 */
(PID.TID 0000.0001)                 3.063804565966232E+05,      /* I = 38 */
(PID.TID 0000.0001)                 3.083602390447406E+05,      /* I = 39 */
(PID.TID 0000.0001)                 3.104936054761689E+05,      /* I = 40 */
(PID.TID 0000.0001)                 3.126963716684348E+05,      /* I = 41 */
(PID.TID 0000.0001)                 3.148834765567928E+05,      /* I = 42 */
(PID.TID 0000.0001)                 3.169722218029966E+05,      /* I = 43 */
(PID.TID 0000.0001)                 3.188851642086189E+05,      /* I = 44 */
(PID.TID 0000.0001)                 3.205526180491640E+05,      /* I = 45 */
(PID.TID 0000.0001)                 3.219147544224371E+05,      /* I = 46 */
(PID.TID 0000.0001)                 3.229233008154936E+05,      /* I = 47 */
(PID.TID 0000.0001)                 3.235428501703109E+05       /* I = 48 */
(PID.TID 0000.0001)     ;
(PID.TID 0000.0001) dxC =  /* dxC(1,:,1,:) ( units: m ) */
(PID.TID 0000.0001)                 1.114203141013064E+05,      /* J =  1 */
(PID.TID 0000.0001)                 1.549545757850771E+05,      /* J =  2 */
(PID.TID 0000.0001)                 1.829777599966776E+05,      /* J =  3 */
(PID.TID 0000.0001)                 2.042717761866506E+05,      /* J =  4 */
(PID.TID 0000.0001)                 2.216367828252819E+05,      /* J =  5 */
(PID.TID 0000.0001)                 2.363029564123586E+05,      /* J =  6 */
(PID.TID 0000.0001)                 2.489113743322025E+05,      /* J =  7 */
(PID.TID 0000.0001)                 2.598293319150326E+05,      /* J =  8 */
(PID.TID 0000.0001)                 2.692787333338535E+05,      /* J =  9 */
(PID.TID 0000.0001)                 2.773972106720365E+05,      /* J = 10 */
(PID.TID 0000.0001)                 2.842706922224557E+05,      /* J = 11 */
(PID.TID 0000.0001)                 2.899523122489403E+05,      /* J = 12 */
(PID.TID 0000.0001)                 2.944741346384699E+05,      /* J = 13 */
(PID.TID 0000.0001)                 2.978547649292580E+05,      /* J = 14 */
(PID.TID 0000.0001)                 3.001044073506459E+05,      /* J = 15 */
(PID.TID 0000.0001)                 3.012281885409289E+05       /* J = 16 */
(PID.TID 0000.0001)     ;
(PID.TID 0000.0001) dyC =  /* dyC(:,1,:,1) ( units: m ) */
(PID.TID 0000.0001)                 1.114203141013064E+05,      /* I =  1 */
(PID.TID 0000.0001)                 1.549545757850771E+05,      /* I =  2 */
(PID.TID 0000.0001)                 1.829777599966776E+05,      /* I =  3 */
(PID.TID 0000.0001)                 2.042717761866506E+05,      /* I =  4 */
(PID.TID 0000.0001)                 2.216367828252819E+05,      /* I =  5 */
(PID.TID 0000.0001)                 2.363029564123586E+05,      /* I =  6 */
(PID.TID 0000.0001)                 2.489113743322025E+05,      /* I =  7 */
(PID.TID 0000.0001)                 2.598293319150326E+05,      /* I =  8 */
(PID.TID 0000.0001)                 2.692787333338535E+05,      /* I =  9 */
(PID.TID 0000.0001)                 2.773972106720365E+05,      /* I = 10 */
(PID.TID 0000.0001)                 2.842706922224557E+05,      /* I = 11 */
(PID.TID 0000.0001)                 2.899523122489403E+05,      /* I = 12 */
(PID.TID 0000.0001)                 2.944741346384699E+05,      /* I = 13 */
(PID.TID 0000.0001)                 2.978547649292580E+05,      /* I = 14 */
(PID.TID 0000.0001)                 3.001044073506459E+05,      /* I = 15 */
(PID.TID 0000.0001)     2 @  3.012281885409289E+05,             /* I = 16: 17 */
(PID.TID 0000.0001)                 3.001044073506459E+05,      /* I = 18 */
(PID.TID 0000.0001)                 2.978547649292580E+05,      /* I = 19 */
(PID.TID 0000.0001)                 2.944741346384699E+05,      /* I = 20 */
(PID.TID 0000.0001)                 2.899523122489403E+05,      /* I = 21 */
(PID.TID 0000.0001)                 2.842706922224557E+05,      /* I = 22 */
(PID.TID 0000.0001)                 2.773972106720365E+05,      /* I = 23 */
(PID.TID 0000.0001)                 2.692787333338535E+05,      /* I = 24 */
(PID.TID 0000.0001)                 2.598293319150326E+05,      /* I = 25 */
(PID.TID 0000.0001)                 2.489113743322025E+05,      /* I = 26 */
(PID.TID 0000.0001)                 2.363029564123586E+05,      /* I = 27 */
(PID.TID 0000.0001)                 2.216367828252819E+05,      /* I = 28 */
(PID.TID 0000.0001)                 2.042717761866506E+05,      /* I = 29 */
(PID.TID 0000.0001)                 1.829777599966776E+05,      /* I = 30 */
(PID.TID 0000.0001)                 1.549545757850771E+05,      /* I = 31 */
(PID.TID 0000.0001)                 1.114203141013064E+05,      /* I = 32 */
(PID.TID 0000.0001)                 3.013593857228136E+05,      /* I = 33 */
(PID.TID 0000.0001)                 3.018056440786431E+05,      /* I = 34 */
(PID.TID 0000.0001)                 3.026789946729719E+05,      /* I = 35 */
(PID.TID 0000.0001)                 3.039422096857757E+05,      /* I = 36 */
(PID.TID 0000.0001)                 3.055420860601236E+05,      /* I = 37 */
(PID.TID 0000.0001)                 3.074122965148668E+05,      /* I = 38 */
(PID.TID 0000.0001)                 3.094767373001940E+05,      /* I = 39 */
(PID.TID 0000.0001)                 3.116531025121516E+05,      /* I = 40 */
(PID.TID 0000.0001)                 3.138564503561421E+05,      /* I = 41 */
(PID.TID 0000.0001)                 3.160025832904765E+05,      /* I = 42 */
(PID.TID 0000.0001)                 3.180111244362097E+05,      /* I = 43 */
(PID.TID 0000.0001)                 3.198082246942282E+05,      /* I = 44 */
(PID.TID 0000.0001)                 3.213288727261454E+05,      /* I = 45 */
(PID.TID 0000.0001)                 3.225188028454169E+05,      /* I = 46 */
(PID.TID 0000.0001)                 3.233360067886980E+05,      /* I = 47 */
(PID.TID 0000.0001)                 3.237518583690030E+05       /* I = 48 */
(PID.TID 0000.0001)     ;
(PID.TID 0000.0001) dyC =  /* dyC(1,:,1,:) ( units: m ) */
(PID.TID 0000.0001)                 1.114203141013064E+05,      /* J =  1 */
(PID.TID 0000.0001)                 1.391343389937106E+05,      /* J =  2 */
(PID.TID 0000.0001)                 1.709574999026266E+05,      /* J =  3 */
(PID.TID 0000.0001)                 1.946503699269892E+05,      /* J =  4 */
(PID.TID 0000.0001)                 2.135964483342134E+05,      /* J =  5 */
(PID.TID 0000.0001)                 2.294195678257306E+05,      /* J =  6 */
(PID.TID 0000.0001)                 2.429464709770498E+05,      /* J =  7 */
(PID.TID 0000.0001)                 2.546408290696998E+05,      /* J =  8 */
(PID.TID 0000.0001)                 2.647791839299727E+05,      /* J =  9 */
(PID.TID 0000.0001)                 2.735321911346108E+05,      /* J = 10 */
(PID.TID 0000.0001)                 2.810065951609633E+05,      /* J = 11 */
(PID.TID 0000.0001)                 2.872689479506990E+05,      /* J = 12 */
(PID.TID 0000.0001)                 2.923599955312932E+05,      /* J = 13 */
(PID.TID 0000.0001)                 2.963038832565530E+05,      /* J = 14 */
(PID.TID 0000.0001)                 2.991142470004740E+05,      /* J = 15 */
(PID.TID 0000.0001)                 3.007982711627968E+05       /* J = 16 */
(PID.TID 0000.0001)     ;
(PID.TID 0000.0001) dxV =  /* dxV(:,1,:,1) ( units: m ) */
(PID.TID 0000.0001)                 8.015229982413632E+04,      /* I =  1 */
(PID.TID 0000.0001)                 1.333130744933864E+05,      /* I =  2 */
(PID.TID 0000.0001)                 1.691744868129062E+05,      /* I =  3 */
(PID.TID 0000.0001)                 1.937548202849060E+05,      /* I =  4 */
(PID.TID 0000.0001)                 2.130490056267208E+05,      /* I =  5 */
(PID.TID 0000.0001)                 2.290479919481738E+05,      /* I =  6 */
(PID.TID 0000.0001)                 2.426774358027003E+05,      /* I =  7 */
(PID.TID 0000.0001)                 2.544372984215561E+05,      /* I =  8 */
(PID.TID 0000.0001)                 2.646201463834826E+05,      /* I =  9 */
(PID.TID 0000.0001)                 2.734046499619031E+05,      /* I = 10 */
(PID.TID 0000.0001)                 2.809019351693761E+05,      /* I = 11 */
(PID.TID 0000.0001)                 2.871811105274442E+05,      /* I = 12 */
(PID.TID 0000.0001)                 2.922844849381675E+05,      /* I = 13 */
(PID.TID 0000.0001)                 2.962371870847826E+05,      /* I = 14 */
(PID.TID 0000.0001)                 2.990534755671296E+05,      /* I = 15 */
(PID.TID 0000.0001)                 3.007409169495504E+05,      /* I = 16 */
(PID.TID 0000.0001)                 3.013031486919771E+05,      /* I = 17 */
(PID.TID 0000.0001)                 3.007409169495504E+05,      /* I = 18 */
(PID.TID 0000.0001)                 2.990534755671296E+05,      /* I = 19 */
(PID.TID 0000.0001)                 2.962371870847826E+05,      /* I = 20 */
(PID.TID 0000.0001)                 2.922844849381675E+05,      /* I = 21 */
(PID.TID 0000.0001)                 2.871811105274442E+05,      /* I = 22 */
(PID.TID 0000.0001)                 2.809019351693761E+05,      /* I = 23 */
(PID.TID 0000.0001)                 2.734046499619031E+05,      /* I = 24 */
(PID.TID 0000.0001)                 2.646201463834826E+05,      /* I = 25 */
(PID.TID 0000.0001)                 2.544372984215561E+05,      /* I = 26 */
(PID.TID 0000.0001)                 2.426774358027003E+05,      /* I = 27 */
(PID.TID 0000.0001)                 2.290479919481738E+05,      /* I = 28 */
(PID.TID 0000.0001)                 2.130490056267208E+05,      /* I = 29 */
(PID.TID 0000.0001)                 1.937548202849060E+05,      /* I = 30 */
(PID.TID 0000.0001)                 1.691744868129062E+05,      /* I = 31 */
(PID.TID 0000.0001)                 1.333130744933864E+05,      /* I = 32 */
(PID.TID 0000.0001)                 3.013686170436881E+05,      /* I = 33 */
(PID.TID 0000.0001)                 3.015922136961168E+05,      /* I = 34 */
(PID.TID 0000.0001)                 3.022533948177109E+05,      /* I = 35 */
(PID.TID 0000.0001)                 3.033238888442880E+05,      /* I = 36 */
(PID.TID 0000.0001)                 3.047583645125296E+05,      /* I = 37 */
(PID.TID 0000.0001)                 3.064969104248934E+05,      /* I = 38 */
(PID.TID 0000.0001)                 3.084681464323149E+05,      /* I = 39 */
(PID.TID 0000.0001)                 3.105926959662063E+05,      /* I = 40 */
(PID.TID 0000.0001)                 3.127867656729039E+05,      /* I = 41 */
(PID.TID 0000.0001)                 3.149656255235069E+05,      /* I = 42 */
(PID.TID 0000.0001)                 3.170468416979250E+05,      /* I = 43 */
(PID.TID 0000.0001)                 3.189531711639232E+05,      /* I = 44 */
(PID.TID 0000.0001)                 3.206150718566154E+05,      /* I = 45 */
(PID.TID 0000.0001)                 3.219728125807783E+05,      /* I = 46 */
(PID.TID 0000.0001)                 3.229781834933111E+05,      /* I = 47 */
(PID.TID 0000.0001)                 3.235958148230841E+05       /* I = 48 */
(PID.TID 0000.0001)     ;
(PID.TID 0000.0001) dxV =  /* dxV(1,:,1,:) ( units: m ) */
(PID.TID 0000.0001)                 8.015229982413632E+04,      /* J =  1 */
(PID.TID 0000.0001)                 1.362652340208229E+05,      /* J =  2 */
(PID.TID 0000.0001)                 1.701080315742101E+05,      /* J =  3 */
(PID.TID 0000.0001)                 1.942331448101592E+05,      /* J =  4 */
(PID.TID 0000.0001)                 2.133486626971531E+05,      /* J =  5 */
(PID.TID 0000.0001)                 2.292584591272880E+05,      /* J =  6 */
(PID.TID 0000.0001)                 2.428369969078989E+05,      /* J =  7 */
(PID.TID 0000.0001)                 2.545652950875683E+05,      /* J =  8 */
(PID.TID 0000.0001)                 2.647274964828301E+05,      /* J =  9 */
(PID.TID 0000.0001)                 2.734980225206389E+05,      /* J = 10 */
(PID.TID 0000.0001)                 2.809856491525217E+05,      /* J = 11 */
(PID.TID 0000.0001)                 2.872580915202295E+05,      /* J = 12 */
(PID.TID 0000.0001)                 2.923567890694162E+05,      /* J = 13 */
(PID.TID 0000.0001)                 2.963063101754721E+05,      /* J = 14 */
(PID.TID 0000.0001)                 2.991205495886625E+05,      /* J = 15 */
(PID.TID 0000.0001)                 3.008068453676764E+05       /* J = 16 */
(PID.TID 0000.0001)     ;
(PID.TID 0000.0001) dyU =  /* dyU(:,1,:,1) ( units: m ) */
(PID.TID 0000.0001)                 8.015229982413632E+04,      /* I =  1 */
(PID.TID 0000.0001)                 1.362652340208229E+05,      /* I =  2 */
(PID.TID 0000.0001)                 1.701080315742101E+05,      /* I =  3 */
(PID.TID 0000.0001)                 1.942331448101592E+05,      /* I =  4 */
(PID.TID 0000.0001)                 2.133486626971531E+05,      /* I =  5 */
(PID.TID 0000.0001)                 2.292584591272880E+05,      /* I =  6 */
(PID.TID 0000.0001)                 2.428369969078989E+05,      /* I =  7 */
(PID.TID 0000.0001)                 2.545652950875683E+05,      /* I =  8 */
(PID.TID 0000.0001)                 2.647274964828301E+05,      /* I =  9 */
(PID.TID 0000.0001)                 2.734980225206389E+05,      /* I = 10 */
(PID.TID 0000.0001)                 2.809856491525217E+05,      /* I = 11 */
(PID.TID 0000.0001)                 2.872580915202295E+05,      /* I = 12 */
(PID.TID 0000.0001)                 2.923567890694162E+05,      /* I = 13 */
(PID.TID 0000.0001)                 2.963063101754721E+05,      /* I = 14 */
(PID.TID 0000.0001)                 2.991205495886625E+05,      /* I = 15 */
(PID.TID 0000.0001)                 3.008068453676764E+05,      /* I = 16 */
(PID.TID 0000.0001)                 3.013686170436881E+05,      /* I = 17 */
(PID.TID 0000.0001)                 3.008068453676764E+05,      /* I = 18 */
(PID.TID 0000.0001)                 2.991205495886625E+05,      /* I = 19 */
(PID.TID 0000.0001)                 2.963063101754721E+05,      /* I = 20 */
(PID.TID 0000.0001)                 2.923567890694162E+05,      /* I = 21 */
(PID.TID 0000.0001)                 2.872580915202295E+05,      /* I = 22 */
(PID.TID 0000.0001)                 2.809856491525217E+05,      /* I = 23 */
(PID.TID 0000.0001)                 2.734980225206389E+05,      /* I = 24 */
(PID.TID 0000.0001)                 2.647274964828301E+05,      /* I = 25 */
(PID.TID 0000.0001)                 2.545652950875683E+05,      /* I = 26 */
(PID.TID 0000.0001)                 2.428369969078989E+05,      /* I = 27 */
(PID.TID 0000.0001)                 2.292584591272880E+05,      /* I = 28 */
(PID.TID 0000.0001)                 2.133486626971531E+05,      /* I = 29 */
(PID.TID 0000.0001)                 1.942331448101592E+05,      /* I = 30 */
(PID.TID 0000.0001)                 1.701080315742101E+05,      /* I = 31 */
(PID.TID 0000.0001)                 1.362652340208229E+05,      /* I = 32 */
(PID.TID 0000.0001)                 3.013031486919771E+05,      /* I = 33 */
(PID.TID 0000.0001)                 3.015274890091515E+05,      /* I = 34 */
(PID.TID 0000.0001)                 3.021908563699420E+05,      /* I = 35 */
(PID.TID 0000.0001)                 3.032648502024415E+05,      /* I = 36 */
(PID.TID 0000.0001)                 3.047039405458409E+05,      /* I = 37 */
(PID.TID 0000.0001)                 3.064479682824742E+05,      /* I = 38 */
(PID.TID 0000.0001)                 3.084252792046263E+05,      /* I = 39 */
(PID.TID 0000.0001)                 3.105562173056038E+05,      /* I = 40 */
(PID.TID 0000.0001)                 3.127567211383312E+05,      /* I = 41 */
(PID.TID 0000.0001)                 3.149418154158797E+05,      /* I = 42 */
(PID.TID 0000.0001)                 3.170288504389129E+05,      /* I = 43 */
(PID.TID 0000.0001)                 3.189403993331409E+05,      /* I = 44 */
(PID.TID 0000.0001)                 3.206067683235888E+05,      /* I = 45 */
(PID.TID 0000.0001)                 3.219681053727232E+05,      /* I = 46 */
(PID.TID 0000.0001)                 3.229761089393431E+05,      /* I = 47 */
(PID.TID 0000.0001)                 3.235953450756532E+05       /* I = 48 */
(PID.TID 0000.0001)     ;
(PID.TID 0000.0001) dyU =  /* dyU(1,:,1,:) ( units: m ) */
(PID.TID 0000.0001)                 8.015229982413632E+04,      /* J =  1 */
(PID.TID 0000.0001)                 1.333130744933864E+05,      /* J =  2 */
(PID.TID 0000.0001)                 1.691744868129062E+05,      /* J =  3 */
(PID.TID 0000.0001)                 1.937548202849060E+05,      /* J =  4 */
(PID.TID 0000.0001)                 2.130490056267208E+05,      /* J =  5 */
(PID.TID 0000.0001)                 2.290479919481738E+05,      /* J =  6 */
(PID.TID 0000.0001)                 2.426774358027003E+05,      /* J =  7 */
(PID.TID 0000.0001)                 2.544372984215561E+05,      /* J =  8 */
(PID.TID 0000.0001)                 2.646201463834826E+05,      /* J =  9 */
(PID.TID 0000.0001)                 2.734046499619031E+05,      /* J = 10 */
(PID.TID 0000.0001)                 2.809019351693761E+05,      /* J = 11 */
(PID.TID 0000.0001)                 2.871811105274442E+05,      /* J = 12 */
(PID.TID 0000.0001)                 2.922844849381675E+05,      /* J = 13 */
(PID.TID 0000.0001)                 2.962371870847826E+05,      /* J = 14 */
(PID.TID 0000.0001)                 2.990534755671296E+05,      /* J = 15 */
(PID.TID 0000.0001)                 3.007409169495504E+05       /* J = 16 */
(PID.TID 0000.0001)     ;
(PID.TID 0000.0001) rA  =  /* rA (:,1,:,1) ( units: m^2 ) */
(PID.TID 0000.0001)                 1.401900702255611E+10,      /* I =  1 */
(PID.TID 0000.0001)                 2.459906945574446E+10,      /* I =  2 */
(PID.TID 0000.0001)                 3.378518544307869E+10,      /* I =  3 */
(PID.TID 0000.0001)                 4.192037169898667E+10,      /* I =  4 */
(PID.TID 0000.0001)                 4.925938996118163E+10,      /* I =  5 */
(PID.TID 0000.0001)                 5.594154126607553E+10,      /* I =  6 */
(PID.TID 0000.0001)                 6.203683527772523E+10,      /* I =  7 */
(PID.TID 0000.0001)                 6.757541173817516E+10,      /* I =  8 */
(PID.TID 0000.0001)                 7.256353271748119E+10,      /* I =  9 */
(PID.TID 0000.0001)                 7.699293007098555E+10,      /* I = 10 */
(PID.TID 0000.0001)                 8.084683449728902E+10,      /* I = 11 */
(PID.TID 0000.0001)                 8.410423102796223E+10,      /* I = 12 */
(PID.TID 0000.0001)                 8.674306976737517E+10,      /* I = 13 */
(PID.TID 0000.0001)                 8.874277443041928E+10,      /* I = 14 */
(PID.TID 0000.0001)                 9.008620045350865E+10,      /* I = 15 */
(PID.TID 0000.0001)                 9.076111290418457E+10,      /* I = 16 */
(PID.TID 0000.0001)                 9.076111290422060E+10,      /* I = 17 */
(PID.TID 0000.0001)                 9.008620045354469E+10,      /* I = 18 */
(PID.TID 0000.0001)                 8.874277443041928E+10,      /* I = 19 */
(PID.TID 0000.0001)                 8.674306976741121E+10,      /* I = 20 */
(PID.TID 0000.0001)                 8.410423102799828E+10,      /* I = 21 */
(PID.TID 0000.0001)                 8.084683449728902E+10,      /* I = 22 */
(PID.TID 0000.0001)                 7.699293007098555E+10,      /* I = 23 */
(PID.TID 0000.0001)                 7.256353271748119E+10,      /* I = 24 */
(PID.TID 0000.0001)                 6.757541173817516E+10,      /* I = 25 */
(PID.TID 0000.0001)                 6.203683527772523E+10,      /* I = 26 */
(PID.TID 0000.0001)                 5.594154126611156E+10,      /* I = 27 */
(PID.TID 0000.0001)                 4.925938996118163E+10,      /* I = 28 */
(PID.TID 0000.0001)                 4.192037169898667E+10,      /* I = 29 */
(PID.TID 0000.0001)                 3.378518544304265E+10,      /* I = 30 */
(PID.TID 0000.0001)                 2.459906945574446E+10,      /* I = 31 */
(PID.TID 0000.0001)                 1.401900702259215E+10,      /* I = 32 */
(PID.TID 0000.0001)                 9.076111290422060E+10,      /* I = 33 */
(PID.TID 0000.0001)                 9.103111035233499E+10,      /* I = 34 */
(PID.TID 0000.0001)                 9.156064070993231E+10,      /* I = 35 */
(PID.TID 0000.0001)                 9.232920428260213E+10,      /* I = 36 */
(PID.TID 0000.0001)                 9.330709899483766E+10,      /* I = 37 */
(PID.TID 0000.0001)                 9.445660930090860E+10,      /* I = 38 */
(PID.TID 0000.0001)                 9.573349030317511E+10,      /* I = 39 */
(PID.TID 0000.0001)                 9.708868016530809E+10,      /* I = 40 */
(PID.TID 0000.0001)                 9.847017339806476E+10,      /* I = 41 */
(PID.TID 0000.0001)                 9.982498936271980E+10,      /* I = 42 */
(PID.TID 0000.0001)                 1.011011716698855E+11,      /* I = 43 */
(PID.TID 0000.0001)                 1.022497537646060E+11,      /* I = 44 */
(PID.TID 0000.0001)                 1.032266241858423E+11,      /* I = 45 */
(PID.TID 0000.0001)                 1.039942233001552E+11,      /* I = 46 */
(PID.TID 0000.0001)                 1.045230037451501E+11,      /* I = 47 */
(PID.TID 0000.0001)                 1.047926024841940E+11       /* I = 48 */
(PID.TID 0000.0001)     ;
(PID.TID 0000.0001) rA  =  /* rA (1,:,1,:) ( units: m^2 ) */
(PID.TID 0000.0001)                 1.401900702255611E+10,      /* J =  1 */
(PID.TID 0000.0001)                 2.459906945574446E+10,      /* J =  2 */
(PID.TID 0000.0001)                 3.378518544307869E+10,      /* J =  3 */
(PID.TID 0000.0001)                 4.192037169898667E+10,      /* J =  4 */
(PID.TID 0000.0001)                 4.925938996118163E+10,      /* J =  5 */
(PID.TID 0000.0001)                 5.594154126607553E+10,      /* J =  6 */
(PID.TID 0000.0001)                 6.203683527776127E+10,      /* J =  7 */
(PID.TID 0000.0001)                 6.757541173817516E+10,      /* J =  8 */
(PID.TID 0000.0001)                 7.256353271748119E+10,      /* J =  9 */
(PID.TID 0000.0001)                 7.699293007098555E+10,      /* J = 10 */
(PID.TID 0000.0001)                 8.084683449728902E+10,      /* J = 11 */
(PID.TID 0000.0001)                 8.410423102799828E+10,      /* J = 12 */
(PID.TID 0000.0001)                 8.674306976737517E+10,      /* J = 13 */
(PID.TID 0000.0001)                 8.874277443041928E+10,      /* J = 14 */
(PID.TID 0000.0001)                 9.008620045350865E+10,      /* J = 15 */
(PID.TID 0000.0001)                 9.076111290418457E+10       /* J = 16 */
(PID.TID 0000.0001)     ;
(PID.TID 0000.0001) rAw =  /* rAw(:,1,:,1) ( units: m^2 ) */
(PID.TID 0000.0001)                 1.216690346714270E+10,      /* I =  1 */
(PID.TID 0000.0001)                 1.974052138506315E+10,      /* I =  2 */
(PID.TID 0000.0001)                 2.943712825252015E+10,      /* I =  3 */
(PID.TID 0000.0001)                 3.801790263324359E+10,      /* I =  4 */
(PID.TID 0000.0001)                 4.571243814189866E+10,      /* I =  5 */
(PID.TID 0000.0001)                 5.269930713599979E+10,      /* I =  6 */
(PID.TID 0000.0001)                 5.907428494299063E+10,      /* I =  7 */
(PID.TID 0000.0001)                 6.488320895111514E+10,      /* I =  8 */
(PID.TID 0000.0001)                 7.014205907741882E+10,      /* I =  9 */
(PID.TID 0000.0001)                 7.484854821847499E+10,      /* I = 10 */
(PID.TID 0000.0001)                 7.898934631431560E+10,      /* I = 11 */
(PID.TID 0000.0001)                 8.254500894894537E+10,      /* I = 12 */
(PID.TID 0000.0001)                 8.549360686473492E+10,      /* I = 13 */
(PID.TID 0000.0001)                 8.781353403175085E+10,      /* I = 14 */
(PID.TID 0000.0001)                 8.948571540392021E+10,      /* I = 15 */
(PID.TID 0000.0001)                 9.049530583086168E+10,      /* I = 16 */
(PID.TID 0000.0001)                 9.083293515008307E+10,      /* I = 17 */
(PID.TID 0000.0001)                 9.049530583087070E+10,      /* I = 18 */
(PID.TID 0000.0001)                 8.948571540391121E+10,      /* I = 19 */
(PID.TID 0000.0001)                 8.781353403174185E+10,      /* I = 20 */
(PID.TID 0000.0001)                 8.549360686467184E+10,      /* I = 21 */
(PID.TID 0000.0001)                 8.254500894890933E+10,      /* I = 22 */
(PID.TID 0000.0001)                 7.898934631434262E+10,      /* I = 23 */
(PID.TID 0000.0001)                 7.484854821844795E+10,      /* I = 24 */
(PID.TID 0000.0001)                 7.014205907742783E+10,      /* I = 25 */
(PID.TID 0000.0001)                 6.488320895111514E+10,      /* I = 26 */
(PID.TID 0000.0001)                 5.907428494299063E+10,      /* I = 27 */
(PID.TID 0000.0001)                 5.269930713599078E+10,      /* I = 28 */
(PID.TID 0000.0001)                 4.571243814190767E+10,      /* I = 29 */
(PID.TID 0000.0001)                 3.801790263325260E+10,      /* I = 30 */
(PID.TID 0000.0001)                 2.943712825251114E+10,      /* I = 31 */
(PID.TID 0000.0001)                 1.974052138509018E+10,      /* I = 32 */
(PID.TID 0000.0001)                 9.071447638299399E+10,      /* I = 33 */
(PID.TID 0000.0001)                 9.085012105610597E+10,      /* I = 34 */
(PID.TID 0000.0001)                 9.125179254955583E+10,      /* I = 35 */
(PID.TID 0000.0001)                 9.190392048045309E+10,      /* I = 36 */
(PID.TID 0000.0001)                 9.278126467409492E+10,      /* I = 37 */
(PID.TID 0000.0001)                 9.384993610263170E+10,      /* I = 38 */
(PID.TID 0000.0001)                 9.506874487174457E+10,      /* I = 39 */
(PID.TID 0000.0001)                 9.639080978465117E+10,      /* I = 40 */
(PID.TID 0000.0001)                 9.776536132335065E+10,      /* I = 41 */
(PID.TID 0000.0001)                 9.913967116446748E+10,      /* I = 42 */
(PID.TID 0000.0001)                 1.004610434085146E+11,      /* I = 43 */
(PID.TID 0000.0001)                 1.016788034168886E+11,      /* I = 44 */
(PID.TID 0000.0001)                 1.027462190489479E+11,      /* I = 45 */
(PID.TID 0000.0001)                 1.036222871661027E+11,      /* I = 46 */
(PID.TID 0000.0001)                 1.042733173971964E+11,      /* I = 47 */
(PID.TID 0000.0001)                 1.046742473574501E+11       /* I = 48 */
(PID.TID 0000.0001)     ;
(PID.TID 0000.0001) rAw =  /* rAw(1,:,1,:) ( units: m^2 ) */
(PID.TID 0000.0001)                 1.216690346714270E+10,      /* J =  1 */
(PID.TID 0000.0001)                 2.390126200743558E+10,      /* J =  2 */
(PID.TID 0000.0001)                 3.341968103208270E+10,      /* J =  3 */
(PID.TID 0000.0001)                 4.168532893152940E+10,      /* J =  4 */
(PID.TID 0000.0001)                 4.909074590409593E+10,      /* J =  5 */
(PID.TID 0000.0001)                 5.581203765722643E+10,      /* J =  6 */
(PID.TID 0000.0001)                 6.193257577506788E+10,      /* J =  7 */
(PID.TID 0000.0001)                 6.748840226738273E+10,      /* J =  8 */
(PID.TID 0000.0001)                 7.248875782324815E+10,      /* J =  9 */
(PID.TID 0000.0001)                 7.692702995909871E+10,      /* J = 10 */
(PID.TID 0000.0001)                 8.078743937057304E+10,      /* J = 11 */
(PID.TID 0000.0001)                 8.404959656062837E+10,      /* J = 12 */
(PID.TID 0000.0001)                 8.669186205742538E+10,      /* J = 13 */
(PID.TID 0000.0001)                 8.869393350723613E+10,      /* J = 14 */
(PID.TID 0000.0001)                 9.003884657168852E+10,      /* J = 15 */
(PID.TID 0000.0001)                 9.071447638299399E+10       /* J = 16 */
(PID.TID 0000.0001)     ;
(PID.TID 0000.0001) rAs =  /* rAs(:,1,:,1) ( units: m^2 ) */
(PID.TID 0000.0001)                 1.216690346714270E+10,      /* I =  1 */
(PID.TID 0000.0001)                 2.390126200743558E+10,      /* I =  2 */
(PID.TID 0000.0001)                 3.341968103208270E+10,      /* I =  3 */
(PID.TID 0000.0001)                 4.168532893152940E+10,      /* I =  4 */
(PID.TID 0000.0001)                 4.909074590409593E+10,      /* I =  5 */
(PID.TID 0000.0001)                 5.581203765722643E+10,      /* I =  6 */
(PID.TID 0000.0001)                 6.193257577506788E+10,      /* I =  7 */
(PID.TID 0000.0001)                 6.748840226738273E+10,      /* I =  8 */
(PID.TID 0000.0001)                 7.248875782324815E+10,      /* I =  9 */
(PID.TID 0000.0001)                 7.692702995909871E+10,      /* I = 10 */
(PID.TID 0000.0001)                 8.078743937057304E+10,      /* I = 11 */
(PID.TID 0000.0001)                 8.404959656062837E+10,      /* I = 12 */
(PID.TID 0000.0001)                 8.669186205742538E+10,      /* I = 13 */
(PID.TID 0000.0001)                 8.869393350723613E+10,      /* I = 14 */
(PID.TID 0000.0001)                 9.003884657168852E+10,      /* I = 15 */
(PID.TID 0000.0001)     2 @  9.071447638299399E+10,             /* I = 16: 17 */
(PID.TID 0000.0001)                 9.003884657168852E+10,      /* I = 18 */
(PID.TID 0000.0001)                 8.869393350723613E+10,      /* I = 19 */
(PID.TID 0000.0001)                 8.669186205742538E+10,      /* I = 20 */
(PID.TID 0000.0001)                 8.404959656062837E+10,      /* I = 21 */
(PID.TID 0000.0001)                 8.078743937057304E+10,      /* I = 22 */
(PID.TID 0000.0001)                 7.692702995909871E+10,      /* I = 23 */
(PID.TID 0000.0001)                 7.248875782324815E+10,      /* I = 24 */
(PID.TID 0000.0001)                 6.748840226738273E+10,      /* I = 25 */
(PID.TID 0000.0001)                 6.193257577506788E+10,      /* I = 26 */
(PID.TID 0000.0001)                 5.581203765722643E+10,      /* I = 27 */
(PID.TID 0000.0001)                 4.909074590409593E+10,      /* I = 28 */
(PID.TID 0000.0001)                 4.168532893152940E+10,      /* I = 29 */
(PID.TID 0000.0001)                 3.341968103208270E+10,      /* I = 30 */
(PID.TID 0000.0001)                 2.390126200743558E+10,      /* I = 31 */
(PID.TID 0000.0001)                 1.216690346714270E+10,      /* I = 32 */
(PID.TID 0000.0001)                 9.083293515008307E+10,      /* I = 33 */
(PID.TID 0000.0001)                 9.110170898494536E+10,      /* I = 34 */
(PID.TID 0000.0001)                 9.162886297688426E+10,      /* I = 35 */
(PID.TID 0000.0001)                 9.239403136821951E+10,      /* I = 36 */
(PID.TID 0000.0001)                 9.336769520564153E+10,      /* I = 37 */
(PID.TID 0000.0001)                 9.451235404855287E+10,      /* I = 38 */
(PID.TID 0000.0001)                 9.578399259392229E+10,      /* I = 39 */
(PID.TID 0000.0001)                 9.713377776174072E+10,      /* I = 40 */
(PID.TID 0000.0001)                 9.850992024629108E+10,      /* I = 41 */
(PID.TID 0000.0001)                 9.985963523714983E+10,      /* I = 42 */
(PID.TID 0000.0001)                 1.011311375396738E+11,      /* I = 43 */
(PID.TID 0000.0001)                 1.022756055022041E+11,      /* I = 44 */
(PID.TID 0000.0001)                 1.032490462723345E+11,      /* I = 45 */
(PID.TID 0000.0001)                 1.040139933533592E+11,      /* I = 46 */
(PID.TID 0000.0001)                 1.045409681097387E+11,      /* I = 47 */
(PID.TID 0000.0001)                 1.048096527455915E+11       /* I = 48 */
(PID.TID 0000.0001)     ;
(PID.TID 0000.0001) rAs =  /* rAs(1,:,1,:) ( units: m^2 ) */
(PID.TID 0000.0001)                 1.216690346714270E+10,      /* J =  1 */
(PID.TID 0000.0001)                 1.974052138506315E+10,      /* J =  2 */
(PID.TID 0000.0001)                 2.943712825252015E+10,      /* J =  3 */
(PID.TID 0000.0001)                 3.801790263324359E+10,      /* J =  4 */
(PID.TID 0000.0001)                 4.571243814189866E+10,      /* J =  5 */
(PID.TID 0000.0001)                 5.269930713599979E+10,      /* J =  6 */
(PID.TID 0000.0001)                 5.907428494299063E+10,      /* J =  7 */
(PID.TID 0000.0001)                 6.488320895111514E+10,      /* J =  8 */
(PID.TID 0000.0001)                 7.014205907741882E+10,      /* J =  9 */
(PID.TID 0000.0001)                 7.484854821847499E+10,      /* J = 10 */
(PID.TID 0000.0001)                 7.898934631431560E+10,      /* J = 11 */
(PID.TID 0000.0001)                 8.254500894894537E+10,      /* J = 12 */
(PID.TID 0000.0001)                 8.549360686473492E+10,      /* J = 13 */
(PID.TID 0000.0001)                 8.781353403175085E+10,      /* J = 14 */
(PID.TID 0000.0001)                 8.948571540392021E+10,      /* J = 15 */
(PID.TID 0000.0001)                 9.049530583086168E+10       /* J = 16 */
(PID.TID 0000.0001)     ;
(PID.TID 0000.0001) globalArea = /* Integrated horizontal Area (m^2) */
(PID.TID 0000.0001)                 3.638867375081599E+14
(PID.TID 0000.0001)     ;
(PID.TID 0000.0001) hasWetCSCorners = /* Domain contains CS corners (True/False) */
(PID.TID 0000.0001)                   T
(PID.TID 0000.0001)     ;
(PID.TID 0000.0001) // =======================================================
(PID.TID 0000.0001) // End of Model config. summary
(PID.TID 0000.0001) // =======================================================
(PID.TID 0000.0001) 
(PID.TID 0000.0001) == Packages configuration : Check & print summary ==
(PID.TID 0000.0001) 
(PID.TID 0000.0001) GGL90_CHECK: #define ALLOW_GGL90
(PID.TID 0000.0001) GGL90_CHECK: Some form of convection has been enabled
(PID.TID 0000.0001) GMREDI_CHECK: #define GMREDI
(PID.TID 0000.0001) GM_AdvForm =     /* if FALSE => use SkewFlux Form */
(PID.TID 0000.0001)                   T
(PID.TID 0000.0001)     ;
(PID.TID 0000.0001) GM_InMomAsStress = /* if TRUE => apply as Eddy Stress */
(PID.TID 0000.0001)                   F
(PID.TID 0000.0001)     ;
(PID.TID 0000.0001) GM_AdvSeparate = /* Calc Bolus & Euler Adv. separately */
(PID.TID 0000.0001)                   F
(PID.TID 0000.0001)     ;
(PID.TID 0000.0001) GM_ExtraDiag =   /* Tensor Extra Diag (line 1&2) non 0 */
(PID.TID 0000.0001)                   T
(PID.TID 0000.0001)     ;
(PID.TID 0000.0001) GM_isopycK =    /* Background Isopyc. Diffusivity [m^2/s] */
(PID.TID 0000.0001)                 1.000000000000000E+03
(PID.TID 0000.0001)     ;
(PID.TID 0000.0001) GM_skewflx*K =  /* Background GM_SkewFlx Diffusivity [m^2/s] */
(PID.TID 0000.0001)                 0.000000000000000E+00
(PID.TID 0000.0001)     ;
(PID.TID 0000.0001) GM_advec*K =    /* Backg. GM-Advec(=Bolus) Diffusivity [m^2/s]*/
(PID.TID 0000.0001)                 1.000000000000000E+03
(PID.TID 0000.0001)     ;
(PID.TID 0000.0001) GM_Kmin_horiz = /* Minimum Horizontal Diffusivity [m^2/s] */
(PID.TID 0000.0001)                 1.000000000000000E+02
(PID.TID 0000.0001)     ;
(PID.TID 0000.0001) GM_Visbeck_alpha = /* Visbeck alpha coeff. [-] */
(PID.TID 0000.0001)                 0.000000000000000E+00
(PID.TID 0000.0001)     ;
(PID.TID 0000.0001) GM_Small_Number =  /* epsilon used in slope calc */
(PID.TID 0000.0001)                 9.999999999999999E-21
(PID.TID 0000.0001)     ;
(PID.TID 0000.0001) GM_slopeSqCutoff = /* Slope^2 cut-off value */
(PID.TID 0000.0001)                 1.000000000000000E+08
(PID.TID 0000.0001)     ;
(PID.TID 0000.0001) GM_taper_scheme =  /* Type of Tapering/Clipping scheme */
(PID.TID 0000.0001)               'stableGmAdjTap                          '
(PID.TID 0000.0001)     ;
(PID.TID 0000.0001) GM_maxSlope =  /* Maximum Slope (Tapering/Clipping) */
(PID.TID 0000.0001)                 4.000000000000000E-03
(PID.TID 0000.0001)     ;
(PID.TID 0000.0001) GM_facTrL2dz = /* Minimum Trans.Layer Thick. (factor of dz) */
(PID.TID 0000.0001)                 1.000000000000000E+00
(PID.TID 0000.0001)     ;
(PID.TID 0000.0001) GM_facTrL2ML = /* Max.Trans.Layer Thick. (factor of MxL Depth)*/
(PID.TID 0000.0001)                 5.000000000000000E+00
(PID.TID 0000.0001)     ;
(PID.TID 0000.0001) GM_maxTransLay = /* Maximum Transition Layer Thickness [m] */
(PID.TID 0000.0001)                 5.000000000000000E+02
(PID.TID 0000.0001)     ;
(PID.TID 0000.0001) GM_UseBVP = /* if TRUE => use bvp a la Ferrari et al. (2010) */
(PID.TID 0000.0001)                   F
(PID.TID 0000.0001)     ;
(PID.TID 0000.0001) GM_BVP_ModeNumber = /* Vertical mode number for BVP wave speed */
(PID.TID 0000.0001)                       1
(PID.TID 0000.0001)     ;
(PID.TID 0000.0001) GM_BVP_cMin = /* Minimum wave speed for BVP [m/s] */
(PID.TID 0000.0001)                 1.000000000000000E-01
(PID.TID 0000.0001)     ;
(PID.TID 0000.0001) GM_useSubMeso = /* if TRUE => use Sub-Meso param. (B.Fox-Kemper) */
(PID.TID 0000.0001)                   F
(PID.TID 0000.0001)     ;
(PID.TID 0000.0001) subMeso_Ceff = /* efficiency coeff. of Mixed-Layer Eddies [-] */
(PID.TID 0000.0001)                 7.000000000000001E-02
(PID.TID 0000.0001)     ;
(PID.TID 0000.0001) subMeso_invTau = /* inverse of Sub-Meso mixing time-scale [/s] */
(PID.TID 0000.0001)                 2.000000000000000E-06
(PID.TID 0000.0001)     ;
(PID.TID 0000.0001) subMeso_LfMin = /* minimum length-scale "Lf" [m] */
(PID.TID 0000.0001)                 1.000000000000000E+03
(PID.TID 0000.0001)     ;
(PID.TID 0000.0001) subMeso_Lmax = /* maximum grid-scale length [m] */
(PID.TID 0000.0001)                 1.100000000000000E+05
(PID.TID 0000.0001)     ;
(PID.TID 0000.0001) GM_useLeithQG = /* if TRUE => add QG Leith viscosity to GMRedi tensor */
(PID.TID 0000.0001)                   F
(PID.TID 0000.0001)     ;
(PID.TID 0000.0001) EXF_CHECK: #define ALLOW_EXF
(PID.TID 0000.0001) SEAICE_CHECK: #define ALLOW_SEAICE
(PID.TID 0000.0001) SALT_PLUME_CHECK: #define SALT_PLUME
(PID.TID 0000.0001) CTRL_CHECK: #define ALLOW_CTRL
(PID.TID 0000.0001) COST_CHECK: #define ALLOW_COST
(PID.TID 0000.0001) GRDCHK_CHECK: grdchk package
(PID.TID 0000.0001) entering boxmean/horflux check,k,using_gencost(k): ,  1    T
(PID.TID 0000.0001) entering boxmean/horflux check,k,using_gencost(k): ,  2    T
(PID.TID 0000.0001) ecco_check for gencost transp & moc; k,using_gencost(k): ,  3    T
(PID.TID 0000.0001) ecco_check file, exst: north10_maskW    T
(PID.TID 0000.0001) ecco_check file, exst: north10_maskS    T
(PID.TID 0000.0001) ecco_check: gencost transp; icount_transp,using_cost_transp:   0    F
(PID.TID 0000.0001) etaday defined by gencost   0
(PID.TID 0000.0001) GAD_CHECK: #define ALLOW_GENERIC_ADVDIFF
(PID.TID 0000.0001) // =======================================================
(PID.TID 0000.0001) // Check Model config. (CONFIG_CHECK):
(PID.TID 0000.0001) // CONFIG_CHECK : Normal End
(PID.TID 0000.0001) // =======================================================
(PID.TID 0000.0001) 
(PID.TID 0000.0001) Start initial hydrostatic pressure computation
(PID.TID 0000.0001) Pressure is predetermined for buoyancyRelation OCEANIC
(PID.TID 0000.0001) 
(PID.TID 0000.0001) // =======================================================
(PID.TID 0000.0001) // Begin MONITOR dynamic field statistics
(PID.TID 0000.0001) // =======================================================
(PID.TID 0000.0001) %MON time_tsnumber                =                     0
(PID.TID 0000.0001) %MON time_secondsf                =   0.0000000000000E+00
(PID.TID 0000.0001) %MON dynstat_eta_max              =   0.0000000000000E+00
(PID.TID 0000.0001) %MON dynstat_eta_min              =   0.0000000000000E+00
(PID.TID 0000.0001) %MON dynstat_eta_mean             =   0.0000000000000E+00
(PID.TID 0000.0001) %MON dynstat_eta_sd               =   0.0000000000000E+00
(PID.TID 0000.0001) %MON dynstat_eta_del2             =   0.0000000000000E+00
(PID.TID 0000.0001) %MON dynstat_uvel_max             =   0.0000000000000E+00
(PID.TID 0000.0001) %MON dynstat_uvel_min             =   0.0000000000000E+00
(PID.TID 0000.0001) %MON dynstat_uvel_mean            =   0.0000000000000E+00
(PID.TID 0000.0001) %MON dynstat_uvel_sd              =   0.0000000000000E+00
(PID.TID 0000.0001) %MON dynstat_uvel_del2            =   0.0000000000000E+00
(PID.TID 0000.0001) %MON dynstat_vvel_max             =   0.0000000000000E+00
(PID.TID 0000.0001) %MON dynstat_vvel_min             =   0.0000000000000E+00
(PID.TID 0000.0001) %MON dynstat_vvel_mean            =   0.0000000000000E+00
(PID.TID 0000.0001) %MON dynstat_vvel_sd              =   0.0000000000000E+00
(PID.TID 0000.0001) %MON dynstat_vvel_del2            =   0.0000000000000E+00
(PID.TID 0000.0001) %MON dynstat_wvel_max             =   0.0000000000000E+00
(PID.TID 0000.0001) %MON dynstat_wvel_min             =   0.0000000000000E+00
(PID.TID 0000.0001) %MON dynstat_wvel_mean            =   0.0000000000000E+00
(PID.TID 0000.0001) %MON dynstat_wvel_sd              =   0.0000000000000E+00
(PID.TID 0000.0001) %MON dynstat_wvel_del2            =   0.0000000000000E+00
(PID.TID 0000.0001) %MON dynstat_theta_max            =   3.0250358581543E+01
(PID.TID 0000.0001) %MON dynstat_theta_min            =  -1.9540429115295E+00
(PID.TID 0000.0001) %MON dynstat_theta_mean           =   3.5950366197190E+00
(PID.TID 0000.0001) %MON dynstat_theta_sd             =   4.4462651796052E+00
(PID.TID 0000.0001) %MON dynstat_theta_del2           =   1.6262218662243E-03
(PID.TID 0000.0001) %MON dynstat_salt_max             =   4.1000000000000E+01
(PID.TID 0000.0001) %MON dynstat_salt_min             =   2.9000000000000E+01
(PID.TID 0000.0001) %MON dynstat_salt_mean            =   3.4726326276874E+01
(PID.TID 0000.0001) %MON dynstat_salt_sd              =   4.0085357985152E-01
(PID.TID 0000.0001) %MON dynstat_salt_del2            =   3.3800732881832E-04
(PID.TID 0000.0001) %MON forcing_qnet_max             =   0.0000000000000E+00
(PID.TID 0000.0001) %MON forcing_qnet_min             =   0.0000000000000E+00
(PID.TID 0000.0001) %MON forcing_qnet_mean            =   0.0000000000000E+00
(PID.TID 0000.0001) %MON forcing_qnet_sd              =   0.0000000000000E+00
(PID.TID 0000.0001) %MON forcing_qnet_del2            =   0.0000000000000E+00
(PID.TID 0000.0001) %MON forcing_qsw_max              =   0.0000000000000E+00
(PID.TID 0000.0001) %MON forcing_qsw_min              =   0.0000000000000E+00
(PID.TID 0000.0001) %MON forcing_qsw_mean             =   0.0000000000000E+00
(PID.TID 0000.0001) %MON forcing_qsw_sd               =   0.0000000000000E+00
(PID.TID 0000.0001) %MON forcing_qsw_del2             =   0.0000000000000E+00
(PID.TID 0000.0001) %MON forcing_empmr_max            =   0.0000000000000E+00
(PID.TID 0000.0001) %MON forcing_empmr_min            =   0.0000000000000E+00
(PID.TID 0000.0001) %MON forcing_empmr_mean           =   0.0000000000000E+00
(PID.TID 0000.0001) %MON forcing_empmr_sd             =   0.0000000000000E+00
(PID.TID 0000.0001) %MON forcing_empmr_del2           =   0.0000000000000E+00
(PID.TID 0000.0001) %MON forcing_fu_max               =   0.0000000000000E+00
(PID.TID 0000.0001) %MON forcing_fu_min               =   0.0000000000000E+00
(PID.TID 0000.0001) %MON forcing_fu_mean              =   0.0000000000000E+00
(PID.TID 0000.0001) %MON forcing_fu_sd                =   0.0000000000000E+00
(PID.TID 0000.0001) %MON forcing_fu_del2              =   0.0000000000000E+00
(PID.TID 0000.0001) %MON forcing_fv_max               =   0.0000000000000E+00
(PID.TID 0000.0001) %MON forcing_fv_min               =   0.0000000000000E+00
(PID.TID 0000.0001) %MON forcing_fv_mean              =   0.0000000000000E+00
(PID.TID 0000.0001) %MON forcing_fv_sd                =   0.0000000000000E+00
(PID.TID 0000.0001) %MON forcing_fv_del2              =   0.0000000000000E+00
(PID.TID 0000.0001) %MON trAdv_CFL_u_max              =   0.0000000000000E+00
(PID.TID 0000.0001) %MON trAdv_CFL_v_max              =   0.0000000000000E+00
(PID.TID 0000.0001) %MON trAdv_CFL_w_max              =   0.0000000000000E+00
(PID.TID 0000.0001) %MON advcfl_uvel_max              =   0.0000000000000E+00
(PID.TID 0000.0001) %MON advcfl_vvel_max              =   0.0000000000000E+00
(PID.TID 0000.0001) %MON advcfl_wvel_max              =   0.0000000000000E+00
(PID.TID 0000.0001) %MON advcfl_W_hf_max              =   0.0000000000000E+00
(PID.TID 0000.0001) %MON pe_b_mean                    =   0.0000000000000E+00
(PID.TID 0000.0001) %MON ke_max                       =   0.0000000000000E+00
(PID.TID 0000.0001) %MON ke_mean                      =   0.0000000000000E+00
(PID.TID 0000.0001) %MON ke_vol                       =   1.3542980227617E+18
(PID.TID 0000.0001) %MON vort_r_min                   =   0.0000000000000E+00
(PID.TID 0000.0001) %MON vort_r_max                   =   0.0000000000000E+00
(PID.TID 0000.0001) %MON vort_a_mean                  =  -1.9720793743754E-05
(PID.TID 0000.0001) %MON vort_a_sd                    =   7.5194714484209E-05
(PID.TID 0000.0001) %MON vort_p_mean                  =  -2.3385747453960E-05
(PID.TID 0000.0001) %MON vort_p_sd                    =   1.1230106999018E-04
(PID.TID 0000.0001) %MON surfExpan_theta_mean         =   0.0000000000000E+00
(PID.TID 0000.0001) %MON surfExpan_salt_mean          =   0.0000000000000E+00
(PID.TID 0000.0001) // =======================================================
(PID.TID 0000.0001) // End MONITOR dynamic field statistics
(PID.TID 0000.0001) // =======================================================
(PID.TID 0000.0001) // =======================================================
(PID.TID 0000.0001) // Begin MONITOR SEAICE statistics
(PID.TID 0000.0001) // =======================================================
(PID.TID 0000.0001) %MON seaice_tsnumber              =                     0
(PID.TID 0000.0001) %MON seaice_time_sec              =   0.0000000000000E+00
(PID.TID 0000.0001) %MON seaice_uice_max              =   0.0000000000000E+00
(PID.TID 0000.0001) %MON seaice_uice_min              =   0.0000000000000E+00
(PID.TID 0000.0001) %MON seaice_uice_mean             =   0.0000000000000E+00
(PID.TID 0000.0001) %MON seaice_uice_sd               =   0.0000000000000E+00
(PID.TID 0000.0001) %MON seaice_uice_del2             =   0.0000000000000E+00
(PID.TID 0000.0001) %MON seaice_vice_max              =   0.0000000000000E+00
(PID.TID 0000.0001) %MON seaice_vice_min              =   0.0000000000000E+00
(PID.TID 0000.0001) %MON seaice_vice_mean             =   0.0000000000000E+00
(PID.TID 0000.0001) %MON seaice_vice_sd               =   0.0000000000000E+00
(PID.TID 0000.0001) %MON seaice_vice_del2             =   0.0000000000000E+00
(PID.TID 0000.0001) %MON seaice_area_max              =   0.0000000000000E+00
(PID.TID 0000.0001) %MON seaice_area_min              =   0.0000000000000E+00
(PID.TID 0000.0001) %MON seaice_area_mean             =   0.0000000000000E+00
(PID.TID 0000.0001) %MON seaice_area_sd               =   0.0000000000000E+00
(PID.TID 0000.0001) %MON seaice_area_del2             =   0.0000000000000E+00
(PID.TID 0000.0001) %MON seaice_heff_max              =   0.0000000000000E+00
(PID.TID 0000.0001) %MON seaice_heff_min              =   0.0000000000000E+00
(PID.TID 0000.0001) %MON seaice_heff_mean             =   0.0000000000000E+00
(PID.TID 0000.0001) %MON seaice_heff_sd               =   0.0000000000000E+00
(PID.TID 0000.0001) %MON seaice_heff_del2             =   0.0000000000000E+00
(PID.TID 0000.0001) %MON seaice_hsnow_max             =   0.0000000000000E+00
(PID.TID 0000.0001) %MON seaice_hsnow_min             =   0.0000000000000E+00
(PID.TID 0000.0001) %MON seaice_hsnow_mean            =   0.0000000000000E+00
(PID.TID 0000.0001) %MON seaice_hsnow_sd              =   0.0000000000000E+00
(PID.TID 0000.0001) %MON seaice_hsnow_del2            =   0.0000000000000E+00
(PID.TID 0000.0001) // =======================================================
(PID.TID 0000.0001) // End MONITOR SEAICE statistics
(PID.TID 0000.0001) // =======================================================
(PID.TID 0000.0001) whio : create lev 3 rec   9
(PID.TID 0000.0001) whio : write lev 3 rec   1
(PID.TID 0000.0001) whio : create lev 2 rec   9
(PID.TID 0000.0001) // =======================================================
(PID.TID 0000.0001) // Begin MONITOR EXF statistics
(PID.TID 0000.0001) // =======================================================
(PID.TID 0000.0001) %MON exf_tsnumber                 =                     0
(PID.TID 0000.0001) %MON exf_time_sec                 =   0.0000000000000E+00
(PID.TID 0000.0001) %MON exf_ustress_max              =   1.1522614646989E+00
(PID.TID 0000.0001) %MON exf_ustress_min              =  -7.9472462321778E-01
(PID.TID 0000.0001) %MON exf_ustress_mean             =  -6.2253112371673E-03
(PID.TID 0000.0001) %MON exf_ustress_sd               =   1.1732273794343E-01
(PID.TID 0000.0001) %MON exf_ustress_del2             =   1.8840777343650E-03
(PID.TID 0000.0001) %MON exf_vstress_max              =   1.7432104413259E+00
(PID.TID 0000.0001) %MON exf_vstress_min              =  -1.1754161466367E+00
(PID.TID 0000.0001) %MON exf_vstress_mean             =  -2.0359911690660E-02
(PID.TID 0000.0001) %MON exf_vstress_sd               =   1.1976747552370E-01
(PID.TID 0000.0001) %MON exf_vstress_del2             =   1.9450364315321E-03
(PID.TID 0000.0001) %MON exf_hflux_max                =   9.6166702213717E+02
(PID.TID 0000.0001) %MON exf_hflux_min                =  -2.7158733727438E+02
(PID.TID 0000.0001) %MON exf_hflux_mean               =  -1.0179368021832E+01
(PID.TID 0000.0001) %MON exf_hflux_sd                 =   1.7021621923668E+02
(PID.TID 0000.0001) %MON exf_hflux_del2               =   1.9416422525113E+00
(PID.TID 0000.0001) %MON exf_sflux_max                =   1.9581753374148E-07
(PID.TID 0000.0001) %MON exf_sflux_min                =  -1.2500822951711E-07
(PID.TID 0000.0001) %MON exf_sflux_mean               =   1.6681569196660E-09
(PID.TID 0000.0001) %MON exf_sflux_sd                 =   3.4688564915311E-08
(PID.TID 0000.0001) %MON exf_sflux_del2               =   4.8891264934365E-10
(PID.TID 0000.0001) %MON exf_uwind_max                =   2.0860738329561E+01
(PID.TID 0000.0001) %MON exf_uwind_min                =  -1.8430840732697E+01
(PID.TID 0000.0001) %MON exf_uwind_mean               =  -5.3733325327735E-01
(PID.TID 0000.0001) %MON exf_uwind_sd                 =   5.9272447408738E+00
(PID.TID 0000.0001) %MON exf_uwind_del2               =   9.3928447988652E-02
(PID.TID 0000.0001) %MON exf_vwind_max                =   2.5321903731717E+01
(PID.TID 0000.0001) %MON exf_vwind_min                =  -2.1275566953749E+01
(PID.TID 0000.0001) %MON exf_vwind_mean               =  -1.6721390706625E+00
(PID.TID 0000.0001) %MON exf_vwind_sd                 =   5.8251949456150E+00
(PID.TID 0000.0001) %MON exf_vwind_del2               =   9.5536154988922E-02
(PID.TID 0000.0001) %MON exf_wspeed_max               =   2.5568045924531E+01
(PID.TID 0000.0001) %MON exf_wspeed_min               =   3.8263317846434E-01
(PID.TID 0000.0001) %MON exf_wspeed_mean              =   7.8139300062484E+00
(PID.TID 0000.0001) %MON exf_wspeed_sd                =   3.3305255331254E+00
(PID.TID 0000.0001) %MON exf_wspeed_del2              =   9.2486075582712E-02
(PID.TID 0000.0001) %MON exf_atemp_max                =   3.0427942262314E+02
(PID.TID 0000.0001) %MON exf_atemp_min                =   2.3115790325848E+02
(PID.TID 0000.0001) %MON exf_atemp_mean               =   2.8924749306250E+02
(PID.TID 0000.0001) %MON exf_atemp_sd                 =   1.2640811150614E+01
(PID.TID 0000.0001) %MON exf_atemp_del2               =   1.5218096614704E-01
(PID.TID 0000.0001) %MON exf_aqh_max                  =   2.1509759853571E-02
(PID.TID 0000.0001) %MON exf_aqh_min                  =  -7.3791298412708E-04
(PID.TID 0000.0001) %MON exf_aqh_mean                 =   1.1106008065461E-02
(PID.TID 0000.0001) %MON exf_aqh_sd                   =   5.7776803619327E-03
(PID.TID 0000.0001) %MON exf_aqh_del2                 =   9.2605876253702E-05
(PID.TID 0000.0001) %MON exf_lwflux_max               =   1.4167633857200E+02
(PID.TID 0000.0001) %MON exf_lwflux_min               =   2.1604527382750E+01
(PID.TID 0000.0001) %MON exf_lwflux_mean              =   5.7523130449950E+01
(PID.TID 0000.0001) %MON exf_lwflux_sd                =   1.7751600143345E+01
(PID.TID 0000.0001) %MON exf_lwflux_del2              =   4.3530220506968E-01
(PID.TID 0000.0001) %MON exf_evap_max                 =   2.3038671079334E-07
(PID.TID 0000.0001) %MON exf_evap_min                 =  -3.0941414016950E-08
(PID.TID 0000.0001) %MON exf_evap_mean                =   3.7351071689545E-08
(PID.TID 0000.0001) %MON exf_evap_sd                  =   2.5899056584349E-08
(PID.TID 0000.0001) %MON exf_evap_del2                =   5.0452209667951E-10
(PID.TID 0000.0001) %MON exf_precip_max               =   1.3952020600973E-07
(PID.TID 0000.0001) %MON exf_precip_min               =   5.3486228464102E-10
(PID.TID 0000.0001) %MON exf_precip_mean              =   3.5682914769879E-08
(PID.TID 0000.0001) %MON exf_precip_sd                =   2.7031607497543E-08
(PID.TID 0000.0001) %MON exf_precip_del2              =   3.5134892686758E-10
(PID.TID 0000.0001) %MON exf_swflux_max               =  -0.0000000000000E+00
(PID.TID 0000.0001) %MON exf_swflux_min               =  -3.0798548080635E+02
(PID.TID 0000.0001) %MON exf_swflux_mean              =  -1.8591177421038E+02
(PID.TID 0000.0001) %MON exf_swflux_sd                =   8.1419977130857E+01
(PID.TID 0000.0001) %MON exf_swflux_del2              =   1.4907766955980E+00
(PID.TID 0000.0001) %MON exf_swdown_max               =   3.2974890878624E+02
(PID.TID 0000.0001) %MON exf_swdown_min               =   0.0000000000000E+00
(PID.TID 0000.0001) %MON exf_swdown_mean              =   1.9904900879056E+02
(PID.TID 0000.0001) %MON exf_swdown_sd                =   8.7173423052309E+01
(PID.TID 0000.0001) %MON exf_swdown_del2              =   1.5961206590985E+00
(PID.TID 0000.0001) %MON exf_lwdown_max               =   4.3346188201475E+02
(PID.TID 0000.0001) %MON exf_lwdown_min               =   1.7039117065578E+02
(PID.TID 0000.0001) %MON exf_lwdown_mean              =   3.5336448250249E+02
(PID.TID 0000.0001) %MON exf_lwdown_sd                =   5.7676954184704E+01
(PID.TID 0000.0001) %MON exf_lwdown_del2              =   2.6123616407635E+00
(PID.TID 0000.0001) %MON exf_climsss_max              =   3.9970559643161E+01
(PID.TID 0000.0001) %MON exf_climsss_min              =   1.7855153914421E+01
(PID.TID 0000.0001) %MON exf_climsss_mean             =   3.4682895412505E+01
(PID.TID 0000.0001) %MON exf_climsss_sd               =   1.4109882129859E+00
(PID.TID 0000.0001) %MON exf_climsss_del2             =   4.9144362345097E-03
(PID.TID 0000.0001) // =======================================================
(PID.TID 0000.0001) // End MONITOR EXF statistics
(PID.TID 0000.0001) // =======================================================
(PID.TID 0000.0001) SOLVE_FOR_PRESSURE: putPmEinXvector =    F
 cg2d: Sum(rhs),rhsMax =   7.73551084252148E-01  3.29048622472776E+00
 cg2d: Sum(rhs),rhsMax =   1.52697357776815E+00  4.17022503399561E+00
(PID.TID 0000.0001)      cg2d_init_res =   1.25378323349447E+01
(PID.TID 0000.0001)      cg2d_iters(min,last) =      -1      31
(PID.TID 0000.0001)      cg2d_last_res =   1.34478286540845E-05
(PID.TID 0000.0001) // =======================================================
(PID.TID 0000.0001) // Begin MONITOR dynamic field statistics
(PID.TID 0000.0001) // =======================================================
(PID.TID 0000.0001) %MON time_tsnumber                =                     2
(PID.TID 0000.0001) %MON time_secondsf                =   7.2000000000000E+03
(PID.TID 0000.0001) %MON dynstat_eta_max              =   7.7220831576543E-01
(PID.TID 0000.0001) %MON dynstat_eta_min              =  -6.4941568763539E-01
(PID.TID 0000.0001) %MON dynstat_eta_mean             =  -3.2880529874426E-04
(PID.TID 0000.0001) %MON dynstat_eta_sd               =   1.8092937288782E-01
(PID.TID 0000.0001) %MON dynstat_eta_del2             =   1.2533467112719E-03
(PID.TID 0000.0001) %MON dynstat_uvel_max             =   4.2884748068859E-01
(PID.TID 0000.0001) %MON dynstat_uvel_min             =  -3.2920099392758E-01
(PID.TID 0000.0001) %MON dynstat_uvel_mean            =  -5.1022151678322E-04
(PID.TID 0000.0001) %MON dynstat_uvel_sd              =   1.1132333109074E-02
(PID.TID 0000.0001) %MON dynstat_uvel_del2            =   3.4603773629505E-05
(PID.TID 0000.0001) %MON dynstat_vvel_max             =   6.2938616379794E-01
(PID.TID 0000.0001) %MON dynstat_vvel_min             =  -4.8459289745200E-01
(PID.TID 0000.0001) %MON dynstat_vvel_mean            =  -2.8963804221756E-04
(PID.TID 0000.0001) %MON dynstat_vvel_sd              =   1.1940013971882E-02
(PID.TID 0000.0001) %MON dynstat_vvel_del2            =   3.6784833267699E-05
(PID.TID 0000.0001) %MON dynstat_wvel_max             =   1.2769957202630E-03
(PID.TID 0000.0001) %MON dynstat_wvel_min             =  -8.5132840060569E-04
(PID.TID 0000.0001) %MON dynstat_wvel_mean            =  -4.3215985062292E-07
(PID.TID 0000.0001) %MON dynstat_wvel_sd              =   3.5248723091532E-05
(PID.TID 0000.0001) %MON dynstat_wvel_del2            =   1.3390630503530E-07
(PID.TID 0000.0001) %MON dynstat_theta_max            =   3.0155011860623E+01
(PID.TID 0000.0001) %MON dynstat_theta_min            =  -1.9415803792981E+00
(PID.TID 0000.0001) %MON dynstat_theta_mean           =   3.5950191627401E+00
(PID.TID 0000.0001) %MON dynstat_theta_sd             =   4.4461504099366E+00
(PID.TID 0000.0001) %MON dynstat_theta_del2           =   1.6298206545448E-03
(PID.TID 0000.0001) %MON dynstat_salt_max             =   4.1000610213798E+01
(PID.TID 0000.0001) %MON dynstat_salt_min             =   2.8994047407183E+01
(PID.TID 0000.0001) %MON dynstat_salt_mean            =   3.4726327878017E+01
(PID.TID 0000.0001) %MON dynstat_salt_sd              =   4.0073441842617E-01
(PID.TID 0000.0001) %MON dynstat_salt_del2            =   3.3826907209947E-04
(PID.TID 0000.0001) %MON forcing_qnet_max             =   8.7301066866930E+02
(PID.TID 0000.0001) %MON forcing_qnet_min             =  -2.8577723286416E+02
(PID.TID 0000.0001) %MON forcing_qnet_mean            =  -2.5846666770356E+01
(PID.TID 0000.0001) %MON forcing_qnet_sd              =   1.3373072887508E+02
(PID.TID 0000.0001) %MON forcing_qnet_del2            =   1.2809417568037E+00
(PID.TID 0000.0001) %MON forcing_qsw_max              =   0.0000000000000E+00
(PID.TID 0000.0001) %MON forcing_qsw_min              =  -3.0810277943071E+02
(PID.TID 0000.0001) %MON forcing_qsw_mean             =  -1.8591942749389E+02
(PID.TID 0000.0001) %MON forcing_qsw_sd               =   8.1397454301172E+01
(PID.TID 0000.0001) %MON forcing_qsw_del2             =   1.7177348678963E-01
(PID.TID 0000.0001) %MON forcing_empmr_max            =   2.5509734036945E-03
(PID.TID 0000.0001) %MON forcing_empmr_min            =  -1.2371361059646E-04
(PID.TID 0000.0001) %MON forcing_empmr_mean           =   4.6711415571932E-05
(PID.TID 0000.0001) %MON forcing_empmr_sd             =   2.6646946315366E-04
(PID.TID 0000.0001) %MON forcing_empmr_del2           =   2.5921563968943E-06
(PID.TID 0000.0001) %MON forcing_fu_max               =   1.1845141542944E+00
(PID.TID 0000.0001) %MON forcing_fu_min               =  -7.9788679421456E-01
(PID.TID 0000.0001) %MON forcing_fu_mean              =  -6.6696984944780E-03
(PID.TID 0000.0001) %MON forcing_fu_sd                =   1.1556278330124E-01
(PID.TID 0000.0001) %MON forcing_fu_del2              =   1.5194363777738E-03
(PID.TID 0000.0001) %MON forcing_fv_max               =   1.6353837065647E+00
(PID.TID 0000.0001) %MON forcing_fv_min               =  -1.0508104262232E+00
(PID.TID 0000.0001) %MON forcing_fv_mean              =  -2.0969085393087E-02
(PID.TID 0000.0001) %MON forcing_fv_sd                =   1.1751005000237E-01
(PID.TID 0000.0001) %MON forcing_fv_del2              =   1.5953892188205E-03
(PID.TID 0000.0001) %MON trAdv_CFL_u_max              =   5.8507032606353E-03
(PID.TID 0000.0001) %MON trAdv_CFL_v_max              =   8.2027997798659E-03
(PID.TID 0000.0001) %MON trAdv_CFL_w_max              =   6.1449686832679E-02
(PID.TID 0000.0001) %MON advcfl_uvel_max              =   5.2427386614934E-03
(PID.TID 0000.0001) %MON advcfl_vvel_max              =   7.5390992081229E-03
(PID.TID 0000.0001) %MON advcfl_wvel_max              =   6.4309484766697E-02
(PID.TID 0000.0001) %MON advcfl_W_hf_max              =   6.7154362332682E-02
(PID.TID 0000.0001) %MON pe_b_mean                    =   4.3129344554273E-05
(PID.TID 0000.0001) %MON ke_max                       =   1.8017215012337E-01
(PID.TID 0000.0001) %MON ke_mean                      =   1.2284241604668E-04
(PID.TID 0000.0001) %MON ke_vol                       =   1.3542979625808E+18
(PID.TID 0000.0001) %MON vort_r_min                   =  -1.5299161171875E-06
(PID.TID 0000.0001) %MON vort_r_max                   =   2.7209700118146E-06
(PID.TID 0000.0001) %MON vort_a_mean                  =  -1.9720793743754E-05
(PID.TID 0000.0001) %MON vort_a_sd                    =   7.5194081320227E-05
(PID.TID 0000.0001) %MON vort_p_mean                  =  -2.3385746079984E-05
(PID.TID 0000.0001) %MON vort_p_sd                    =   1.1229941854182E-04
(PID.TID 0000.0001) %MON surfExpan_theta_mean         =   3.0823557794451E-05
(PID.TID 0000.0001) %MON surfExpan_salt_mean          =   1.0328656636688E-06
(PID.TID 0000.0001) // =======================================================
(PID.TID 0000.0001) // End MONITOR dynamic field statistics
(PID.TID 0000.0001) // =======================================================
(PID.TID 0000.0001) // =======================================================
(PID.TID 0000.0001) // Begin MONITOR SEAICE statistics
(PID.TID 0000.0001) // =======================================================
(PID.TID 0000.0001) %MON seaice_tsnumber              =                     2
(PID.TID 0000.0001) %MON seaice_time_sec              =   7.2000000000000E+03
(PID.TID 0000.0001) %MON seaice_uice_max              =   4.0000000000000E-01
(PID.TID 0000.0001) %MON seaice_uice_min              =  -4.0000000000000E-01
(PID.TID 0000.0001) %MON seaice_uice_mean             =  -1.0677224285591E-02
(PID.TID 0000.0001) %MON seaice_uice_sd               =   1.0561021620250E-01
(PID.TID 0000.0001) %MON seaice_uice_del2             =   1.3843152597617E-03
(PID.TID 0000.0001) %MON seaice_vice_max              =   4.0000000000000E-01
(PID.TID 0000.0001) %MON seaice_vice_min              =  -4.0000000000000E-01
(PID.TID 0000.0001) %MON seaice_vice_mean             =  -2.8384336924911E-02
(PID.TID 0000.0001) %MON seaice_vice_sd               =   1.0030070114837E-01
(PID.TID 0000.0001) %MON seaice_vice_del2             =   1.3490617551034E-03
(PID.TID 0000.0001) %MON seaice_area_max              =   4.2316610831236E-02
(PID.TID 0000.0001) %MON seaice_area_min              =   0.0000000000000E+00
(PID.TID 0000.0001) %MON seaice_area_mean             =   8.2151899265474E-04
(PID.TID 0000.0001) %MON seaice_area_sd               =   4.4433173167457E-03
(PID.TID 0000.0001) %MON seaice_area_del2             =   4.2069671225622E-05
(PID.TID 0000.0001) %MON seaice_heff_max              =   1.9985149435772E-02
(PID.TID 0000.0001) %MON seaice_heff_min              =   0.0000000000000E+00
(PID.TID 0000.0001) %MON seaice_heff_mean             =   3.7179066075314E-04
(PID.TID 0000.0001) %MON seaice_heff_sd               =   2.0562010400950E-03
(PID.TID 0000.0001) %MON seaice_heff_del2             =   1.9770376440199E-05
(PID.TID 0000.0001) %MON seaice_hsnow_max             =   3.8515326362499E-06
(PID.TID 0000.0001) %MON seaice_hsnow_min             =   0.0000000000000E+00
(PID.TID 0000.0001) %MON seaice_hsnow_mean            =   3.3791280225800E-08
(PID.TID 0000.0001) %MON seaice_hsnow_sd              =   2.1330417351070E-07
(PID.TID 0000.0001) %MON seaice_hsnow_del2            =   2.9935128849891E-09
(PID.TID 0000.0001) // =======================================================
(PID.TID 0000.0001) // End MONITOR SEAICE statistics
(PID.TID 0000.0001) // =======================================================
(PID.TID 0000.0001) // =======================================================
(PID.TID 0000.0001) // Begin MONITOR EXF statistics
(PID.TID 0000.0001) // =======================================================
(PID.TID 0000.0001) %MON exf_tsnumber                 =                     2
(PID.TID 0000.0001) %MON exf_time_sec                 =   7.2000000000000E+03
(PID.TID 0000.0001) %MON exf_ustress_max              =   1.3804934888868E+00
(PID.TID 0000.0001) %MON exf_ustress_min              =  -1.0625427774596E+00
(PID.TID 0000.0001) %MON exf_ustress_mean             =  -6.2958860065446E-03
(PID.TID 0000.0001) %MON exf_ustress_sd               =   1.2365246201895E-01
(PID.TID 0000.0001) %MON exf_ustress_del2             =   2.0719433665249E-03
(PID.TID 0000.0001) %MON exf_vstress_max              =   1.9350726166580E+00
(PID.TID 0000.0001) %MON exf_vstress_min              =  -1.1098269576596E+00
(PID.TID 0000.0001) %MON exf_vstress_mean             =  -2.0697151866453E-02
(PID.TID 0000.0001) %MON exf_vstress_sd               =   1.2473697632454E-01
(PID.TID 0000.0001) %MON exf_vstress_del2             =   2.0422854006221E-03
(PID.TID 0000.0001) %MON exf_hflux_max                =   9.3296438538218E+02
(PID.TID 0000.0001) %MON exf_hflux_min                =  -3.0209634519797E+02
(PID.TID 0000.0001) %MON exf_hflux_mean               =  -9.7950490305809E+00
(PID.TID 0000.0001) %MON exf_hflux_sd                 =   1.7048015364063E+02
(PID.TID 0000.0001) %MON exf_hflux_del2               =   1.9540816099778E+00
(PID.TID 0000.0001) %MON exf_sflux_max                =   1.9623201658926E-07
(PID.TID 0000.0001) %MON exf_sflux_min                =  -1.1928804646881E-07
(PID.TID 0000.0001) %MON exf_sflux_mean               =   1.8286605260290E-09
(PID.TID 0000.0001) %MON exf_sflux_sd                 =   3.4752807499852E-08
(PID.TID 0000.0001) %MON exf_sflux_del2               =   4.9664847413216E-10
(PID.TID 0000.0001) %MON exf_uwind_max                =   2.3362609121512E+01
(PID.TID 0000.0001) %MON exf_uwind_min                =  -2.0010170945956E+01
(PID.TID 0000.0001) %MON exf_uwind_mean               =  -5.3546021455717E-01
(PID.TID 0000.0001) %MON exf_uwind_sd                 =   6.0077171273651E+00
(PID.TID 0000.0001) %MON exf_uwind_del2               =   8.5651241151945E-02
(PID.TID 0000.0001) %MON exf_vwind_max                =   2.6407284425580E+01
(PID.TID 0000.0001) %MON exf_vwind_min                =  -1.9935248047561E+01
(PID.TID 0000.0001) %MON exf_vwind_mean               =  -1.6622684381680E+00
(PID.TID 0000.0001) %MON exf_vwind_sd                 =   5.8893788788418E+00
(PID.TID 0000.0001) %MON exf_vwind_del2               =   8.7397876695318E-02
(PID.TID 0000.0001) %MON exf_wspeed_max               =   2.6409713750035E+01
(PID.TID 0000.0001) %MON exf_wspeed_min               =   3.0493174862650E-01
(PID.TID 0000.0001) %MON exf_wspeed_mean              =   7.9091469168305E+00
(PID.TID 0000.0001) %MON exf_wspeed_sd                =   3.3574838362795E+00
(PID.TID 0000.0001) %MON exf_wspeed_del2              =   9.3552081007714E-02
(PID.TID 0000.0001) %MON exf_atemp_max                =   3.0335556946636E+02
(PID.TID 0000.0001) %MON exf_atemp_min                =   2.3193997711843E+02
(PID.TID 0000.0001) %MON exf_atemp_mean               =   2.8925575264114E+02
(PID.TID 0000.0001) %MON exf_atemp_sd                 =   1.2620790142095E+01
(PID.TID 0000.0001) %MON exf_atemp_del2               =   1.5216643861187E-01
(PID.TID 0000.0001) %MON exf_aqh_max                  =   2.1591946486677E-02
(PID.TID 0000.0001) %MON exf_aqh_min                  =  -8.0521899733026E-04
(PID.TID 0000.0001) %MON exf_aqh_mean                 =   1.1113554851881E-02
(PID.TID 0000.0001) %MON exf_aqh_sd                   =   5.7788679701839E-03
(PID.TID 0000.0001) %MON exf_aqh_del2                 =   9.2750966976554E-05
(PID.TID 0000.0001) %MON exf_lwflux_max               =   1.4041454851409E+02
(PID.TID 0000.0001) %MON exf_lwflux_min               =   2.1469334891041E+01
(PID.TID 0000.0001) %MON exf_lwflux_mean              =   5.7488730803800E+01
(PID.TID 0000.0001) %MON exf_lwflux_sd                =   1.7682145855982E+01
(PID.TID 0000.0001) %MON exf_lwflux_del2              =   4.3484485085363E-01
(PID.TID 0000.0001) %MON exf_evap_max                 =   2.3080696934706E-07
(PID.TID 0000.0001) %MON exf_evap_min                 =  -3.8416655458345E-08
(PID.TID 0000.0001) %MON exf_evap_mean                =   3.7511177570015E-08
(PID.TID 0000.0001) %MON exf_evap_sd                  =   2.6148510918363E-08
(PID.TID 0000.0001) %MON exf_evap_del2                =   5.1311523361460E-10
(PID.TID 0000.0001) %MON exf_precip_max               =   1.3952202593044E-07
(PID.TID 0000.0001) %MON exf_precip_min               =   5.3281786289283E-10
(PID.TID 0000.0001) %MON exf_precip_mean              =   3.5682517043986E-08
(PID.TID 0000.0001) %MON exf_precip_sd                =   2.7035955953610E-08
(PID.TID 0000.0001) %MON exf_precip_del2              =   3.5133667034981E-10
(PID.TID 0000.0001) %MON exf_swflux_max               =  -0.0000000000000E+00
(PID.TID 0000.0001) %MON exf_swflux_min               =  -3.0822007805507E+02
(PID.TID 0000.0001) %MON exf_swflux_mean              =  -1.8592838177972E+02
(PID.TID 0000.0001) %MON exf_swflux_sd                =   8.1374007675622E+01
(PID.TID 0000.0001) %MON exf_swflux_del2              =   1.4905145237257E+00
(PID.TID 0000.0001) %MON exf_swdown_max               =   3.3000008357074E+02
(PID.TID 0000.0001) %MON exf_swdown_min               =   0.0000000000000E+00
(PID.TID 0000.0001) %MON exf_swdown_mean              =   1.9906678991405E+02
(PID.TID 0000.0001) %MON exf_swdown_sd                =   8.7124205220152E+01
(PID.TID 0000.0001) %MON exf_swdown_del2              =   1.5958399611624E+00
(PID.TID 0000.0001) %MON exf_lwdown_max               =   4.3311745988668E+02
(PID.TID 0000.0001) %MON exf_lwdown_min               =   1.7145585457904E+02
(PID.TID 0000.0001) %MON exf_lwdown_mean              =   3.5336133373691E+02
(PID.TID 0000.0001) %MON exf_lwdown_sd                =   5.7644206765705E+01
(PID.TID 0000.0001) %MON exf_lwdown_del2              =   2.6118634371158E+00
(PID.TID 0000.0001) %MON exf_climsss_max              =   3.9969883734180E+01
(PID.TID 0000.0001) %MON exf_climsss_min              =   1.7857444619620E+01
(PID.TID 0000.0001) %MON exf_climsss_mean             =   3.4682918388776E+01
(PID.TID 0000.0001) %MON exf_climsss_sd               =   1.4108091793549E+00
(PID.TID 0000.0001) %MON exf_climsss_del2             =   4.9147138764479E-03
(PID.TID 0000.0001) // =======================================================
(PID.TID 0000.0001) // End MONITOR EXF statistics
(PID.TID 0000.0001) // =======================================================
 cg2d: Sum(rhs),rhsMax =   2.27601764070118E+00  4.04197234578125E+00
 cg2d: Sum(rhs),rhsMax =   3.02165606792590E+00  3.85995024094910E+00
(PID.TID 0000.0001)      cg2d_init_res =   6.85288555420924E+00
(PID.TID 0000.0001)      cg2d_iters(min,last) =      -1      31
(PID.TID 0000.0001)      cg2d_last_res =   1.19969225614463E-05
(PID.TID 0000.0001) // =======================================================
(PID.TID 0000.0001) // Begin MONITOR dynamic field statistics
(PID.TID 0000.0001) // =======================================================
(PID.TID 0000.0001) %MON time_tsnumber                =                     4
(PID.TID 0000.0001) %MON time_secondsf                =   1.4400000000000E+04
(PID.TID 0000.0001) %MON dynstat_eta_max              =   1.0890402609337E+00
(PID.TID 0000.0001) %MON dynstat_eta_min              =  -9.6303080877747E-01
(PID.TID 0000.0001) %MON dynstat_eta_mean             =  -6.5316966869643E-04
(PID.TID 0000.0001) %MON dynstat_eta_sd               =   3.1483050963958E-01
(PID.TID 0000.0001) %MON dynstat_eta_del2             =   1.1622406931771E-03
(PID.TID 0000.0001) %MON dynstat_uvel_max             =   4.6559727969236E-01
(PID.TID 0000.0001) %MON dynstat_uvel_min             =  -3.9607182210955E-01
(PID.TID 0000.0001) %MON dynstat_uvel_mean            =  -1.7209208064453E-03
(PID.TID 0000.0001) %MON dynstat_uvel_sd              =   1.6623668342836E-02
(PID.TID 0000.0001) %MON dynstat_uvel_del2            =   6.0707193055075E-05
(PID.TID 0000.0001) %MON dynstat_vvel_max             =   8.3668913447194E-01
(PID.TID 0000.0001) %MON dynstat_vvel_min             =  -4.5770786952745E-01
(PID.TID 0000.0001) %MON dynstat_vvel_mean            =  -1.3543047738333E-03
(PID.TID 0000.0001) %MON dynstat_vvel_sd              =   1.8535213368072E-02
(PID.TID 0000.0001) %MON dynstat_vvel_del2            =   6.4450931334760E-05
(PID.TID 0000.0001) %MON dynstat_wvel_max             =   2.4517272087328E-03
(PID.TID 0000.0001) %MON dynstat_wvel_min             =  -1.6939945423771E-03
(PID.TID 0000.0001) %MON dynstat_wvel_mean            =  -2.3620787268120E-07
(PID.TID 0000.0001) %MON dynstat_wvel_sd              =   5.6089420748317E-05
(PID.TID 0000.0001) %MON dynstat_wvel_del2            =   2.2375218327954E-07
(PID.TID 0000.0001) %MON dynstat_theta_max            =   3.0154466181268E+01
(PID.TID 0000.0001) %MON dynstat_theta_min            =  -1.9396257620812E+00
(PID.TID 0000.0001) %MON dynstat_theta_mean           =   3.5950347075523E+00
(PID.TID 0000.0001) %MON dynstat_theta_sd             =   4.4461507162227E+00
(PID.TID 0000.0001) %MON dynstat_theta_del2           =   1.6271652524937E-03
(PID.TID 0000.0001) %MON dynstat_salt_max             =   4.0987216603846E+01
(PID.TID 0000.0001) %MON dynstat_salt_min             =   2.8987645798192E+01
(PID.TID 0000.0001) %MON dynstat_salt_mean            =   3.4726330465244E+01
(PID.TID 0000.0001) %MON dynstat_salt_sd              =   4.0070201124175E-01
(PID.TID 0000.0001) %MON dynstat_salt_del2            =   3.3772567102723E-04
(PID.TID 0000.0001) %MON forcing_qnet_max             =   8.7921354192601E+02
(PID.TID 0000.0001) %MON forcing_qnet_min             =  -3.1700632106993E+02
(PID.TID 0000.0001) %MON forcing_qnet_mean            =  -2.4511503750980E+01
(PID.TID 0000.0001) %MON forcing_qnet_sd              =   1.3573638872635E+02
(PID.TID 0000.0001) %MON forcing_qnet_del2            =   1.3631672478893E+00
(PID.TID 0000.0001) %MON forcing_qsw_max              =   0.0000000000000E+00
(PID.TID 0000.0001) %MON forcing_qsw_min              =  -3.0833737667944E+02
(PID.TID 0000.0001) %MON forcing_qsw_mean             =  -1.8593389429362E+02
(PID.TID 0000.0001) %MON forcing_qsw_sd               =   8.1359313076774E+01
(PID.TID 0000.0001) %MON forcing_qsw_del2             =   1.6607394531273E-01
(PID.TID 0000.0001) %MON forcing_empmr_max            =   2.3817323350466E-03
(PID.TID 0000.0001) %MON forcing_empmr_min            =  -1.1938750732237E-04
(PID.TID 0000.0001) %MON forcing_empmr_mean           =   4.6286056228062E-05
(PID.TID 0000.0001) %MON forcing_empmr_sd             =   2.6253412778606E-04
(PID.TID 0000.0001) %MON forcing_empmr_del2           =   2.4782410138269E-06
(PID.TID 0000.0001) %MON forcing_fu_max               =   1.4933423324154E+00
(PID.TID 0000.0001) %MON forcing_fu_min               =  -1.0758084790332E+00
(PID.TID 0000.0001) %MON forcing_fu_mean              =  -6.8839581713148E-03
(PID.TID 0000.0001) %MON forcing_fu_sd                =   1.2822528081026E-01
(PID.TID 0000.0001) %MON forcing_fu_del2              =   1.8422152130477E-03
(PID.TID 0000.0001) %MON forcing_fv_max               =   2.0000000000000E+00
(PID.TID 0000.0001) %MON forcing_fv_min               =  -9.4912777034728E-01
(PID.TID 0000.0001) %MON forcing_fv_mean              =  -2.1650866930546E-02
(PID.TID 0000.0001) %MON forcing_fv_sd                =   1.2734384099057E-01
(PID.TID 0000.0001) %MON forcing_fv_del2              =   1.7868671285668E-03
(PID.TID 0000.0001) %MON trAdv_CFL_u_max              =   7.1338171955773E-03
(PID.TID 0000.0001) %MON trAdv_CFL_v_max              =   8.5802353972834E-03
(PID.TID 0000.0001) %MON trAdv_CFL_w_max              =   1.1640240918396E-01
(PID.TID 0000.0001) %MON advcfl_uvel_max              =   6.4564503243546E-03
(PID.TID 0000.0001) %MON advcfl_vvel_max              =   9.8555597665680E-03
(PID.TID 0000.0001) %MON advcfl_wvel_max              =   1.2173753954000E-01
(PID.TID 0000.0001) %MON advcfl_W_hf_max              =   1.2711488268550E-01
(PID.TID 0000.0001) %MON pe_b_mean                    =   1.3057232510802E-04
(PID.TID 0000.0001) %MON ke_max                       =   1.7930398928779E-01
(PID.TID 0000.0001) %MON ke_mean                      =   2.8764665408403E-04
(PID.TID 0000.0001) %MON ke_vol                       =   1.3542978440074E+18
(PID.TID 0000.0001) %MON vort_r_min                   =  -2.7575486619909E-06
(PID.TID 0000.0001) %MON vort_r_max                   =   2.7180825570805E-06
(PID.TID 0000.0001) %MON vort_a_mean                  =  -1.9720793743754E-05
(PID.TID 0000.0001) %MON vort_a_sd                    =   7.5193096777492E-05
(PID.TID 0000.0001) %MON vort_p_mean                  =  -2.3385737833613E-05
(PID.TID 0000.0001) %MON vort_p_sd                    =   1.1229623568954E-04
(PID.TID 0000.0001) %MON surfExpan_theta_mean         =   2.7366959395214E-05
(PID.TID 0000.0001) %MON surfExpan_salt_mean          =   1.1276264456381E-06
(PID.TID 0000.0001) // =======================================================
(PID.TID 0000.0001) // End MONITOR dynamic field statistics
(PID.TID 0000.0001) // =======================================================
(PID.TID 0000.0001) // =======================================================
(PID.TID 0000.0001) // Begin MONITOR SEAICE statistics
(PID.TID 0000.0001) // =======================================================
(PID.TID 0000.0001) %MON seaice_tsnumber              =                     4
(PID.TID 0000.0001) %MON seaice_time_sec              =   1.4400000000000E+04
(PID.TID 0000.0001) %MON seaice_uice_max              =   4.0000000000000E-01
(PID.TID 0000.0001) %MON seaice_uice_min              =  -4.0000000000000E-01
(PID.TID 0000.0001) %MON seaice_uice_mean             =  -1.6266137978488E-02
(PID.TID 0000.0001) %MON seaice_uice_sd               =   1.6328426404148E-01
(PID.TID 0000.0001) %MON seaice_uice_del2             =   2.0463181888385E-03
(PID.TID 0000.0001) %MON seaice_vice_max              =   4.0000000000000E-01
(PID.TID 0000.0001) %MON seaice_vice_min              =  -4.0000000000000E-01
(PID.TID 0000.0001) %MON seaice_vice_mean             =  -4.5201857214911E-02
(PID.TID 0000.0001) %MON seaice_vice_sd               =   1.5861474370869E-01
(PID.TID 0000.0001) %MON seaice_vice_del2             =   2.0924955873822E-03
(PID.TID 0000.0001) %MON seaice_area_max              =   8.4037768357354E-02
(PID.TID 0000.0001) %MON seaice_area_min              =   0.0000000000000E+00
(PID.TID 0000.0001) %MON seaice_area_mean             =   1.7185050080772E-03
(PID.TID 0000.0001) %MON seaice_area_sd               =   9.1432894603469E-03
(PID.TID 0000.0001) %MON seaice_area_del2             =   8.5498880902109E-05
(PID.TID 0000.0001) %MON seaice_heff_max              =   3.8672995801018E-02
(PID.TID 0000.0001) %MON seaice_heff_min              =   0.0000000000000E+00
(PID.TID 0000.0001) %MON seaice_heff_mean             =   7.3851543123594E-04
(PID.TID 0000.0001) %MON seaice_heff_sd               =   4.0696195559937E-03
(PID.TID 0000.0001) %MON seaice_heff_del2             =   3.8091517955238E-05
(PID.TID 0000.0001) %MON seaice_hsnow_max             =   2.2787068334910E-05
(PID.TID 0000.0001) %MON seaice_hsnow_min             =   0.0000000000000E+00
(PID.TID 0000.0001) %MON seaice_hsnow_mean            =   1.8953534523236E-07
(PID.TID 0000.0001) %MON seaice_hsnow_sd              =   1.1994419297762E-06
(PID.TID 0000.0001) %MON seaice_hsnow_del2            =   2.0121073030672E-08
(PID.TID 0000.0001) // =======================================================
(PID.TID 0000.0001) // End MONITOR SEAICE statistics
(PID.TID 0000.0001) // =======================================================
(PID.TID 0000.0001) // =======================================================
(PID.TID 0000.0001) // Begin MONITOR EXF statistics
(PID.TID 0000.0001) // =======================================================
(PID.TID 0000.0001) %MON exf_tsnumber                 =                     4
(PID.TID 0000.0001) %MON exf_time_sec                 =   1.4400000000000E+04
(PID.TID 0000.0001) %MON exf_ustress_max              =   1.3844270228197E+00
(PID.TID 0000.0001) %MON exf_ustress_min              =  -1.0417589747856E+00
(PID.TID 0000.0001) %MON exf_ustress_mean             =  -6.6384275529612E-03
(PID.TID 0000.0001) %MON exf_ustress_sd               =   1.2478616714219E-01
(PID.TID 0000.0001) %MON exf_ustress_del2             =   2.0841802031589E-03
(PID.TID 0000.0001) %MON exf_vstress_max              =   2.0853724252863E+00
(PID.TID 0000.0001) %MON exf_vstress_min              =  -8.4277893213240E-01
(PID.TID 0000.0001) %MON exf_vstress_mean             =  -2.0460748762173E-02
(PID.TID 0000.0001) %MON exf_vstress_sd               =   1.2540791040531E-01
(PID.TID 0000.0001) %MON exf_vstress_del2             =   2.0118677110526E-03
(PID.TID 0000.0001) %MON exf_hflux_max                =   9.1688174316804E+02
(PID.TID 0000.0001) %MON exf_hflux_min                =  -3.0463291109667E+02
(PID.TID 0000.0001) %MON exf_hflux_mean               =  -1.0187055236536E+01
(PID.TID 0000.0001) %MON exf_hflux_sd                 =   1.7000241603295E+02
(PID.TID 0000.0001) %MON exf_hflux_del2               =   1.9628274369863E+00
(PID.TID 0000.0001) %MON exf_sflux_max                =   1.8894177711191E-07
(PID.TID 0000.0001) %MON exf_sflux_min                =  -1.1883687342004E-07
(PID.TID 0000.0001) %MON exf_sflux_mean               =   1.7343418043392E-09
(PID.TID 0000.0001) %MON exf_sflux_sd                 =   3.4711017202821E-08
(PID.TID 0000.0001) %MON exf_sflux_del2               =   5.0142891545143E-10
(PID.TID 0000.0001) %MON exf_uwind_max                =   2.3182695081118E+01
(PID.TID 0000.0001) %MON exf_uwind_min                =  -2.0198948751322E+01
(PID.TID 0000.0001) %MON exf_uwind_mean               =  -5.5593456160356E-01
(PID.TID 0000.0001) %MON exf_uwind_sd                 =   6.0227235401069E+00
(PID.TID 0000.0001) %MON exf_uwind_del2               =   8.5696988030255E-02
(PID.TID 0000.0001) %MON exf_vwind_max                =   2.6951704182367E+01
(PID.TID 0000.0001) %MON exf_vwind_min                =  -1.7873572476238E+01
(PID.TID 0000.0001) %MON exf_vwind_mean               =  -1.6512137649007E+00
(PID.TID 0000.0001) %MON exf_vwind_sd                 =   5.8915018504591E+00
(PID.TID 0000.0001) %MON exf_vwind_del2               =   8.6795295775799E-02
(PID.TID 0000.0001) %MON exf_wspeed_max               =   2.7219951183493E+01
(PID.TID 0000.0001) %MON exf_wspeed_min               =   1.9899058985537E-01
(PID.TID 0000.0001) %MON exf_wspeed_mean              =   7.9195929056136E+00
(PID.TID 0000.0001) %MON exf_wspeed_sd                =   3.3613406905665E+00
(PID.TID 0000.0001) %MON exf_wspeed_del2              =   9.3871228383689E-02
(PID.TID 0000.0001) %MON exf_atemp_max                =   3.0318708226233E+02
(PID.TID 0000.0001) %MON exf_atemp_min                =   2.3221217962885E+02
(PID.TID 0000.0001) %MON exf_atemp_mean               =   2.8925304776576E+02
(PID.TID 0000.0001) %MON exf_atemp_sd                 =   1.2597993404784E+01
(PID.TID 0000.0001) %MON exf_atemp_del2               =   1.5202000603516E-01
(PID.TID 0000.0001) %MON exf_aqh_max                  =   2.1604232678911E-02
(PID.TID 0000.0001) %MON exf_aqh_min                  =  -8.3511021461176E-04
(PID.TID 0000.0001) %MON exf_aqh_mean                 =   1.1117401875187E-02
(PID.TID 0000.0001) %MON exf_aqh_sd                   =   5.7762631202966E-03
(PID.TID 0000.0001) %MON exf_aqh_del2                 =   9.2739950111696E-05
(PID.TID 0000.0001) %MON exf_lwflux_max               =   1.3923613550083E+02
(PID.TID 0000.0001) %MON exf_lwflux_min               =   2.1258430936334E+01
(PID.TID 0000.0001) %MON exf_lwflux_mean              =   5.7462505392776E+01
(PID.TID 0000.0001) %MON exf_lwflux_sd                =   1.7625796830366E+01
(PID.TID 0000.0001) %MON exf_lwflux_del2              =   4.3452027264093E-01
(PID.TID 0000.0001) %MON exf_evap_max                 =   2.2352250557566E-07
(PID.TID 0000.0001) %MON exf_evap_min                 =  -3.8337592321048E-08
(PID.TID 0000.0001) %MON exf_evap_mean                =   3.7416461122431E-08
(PID.TID 0000.0001) %MON exf_evap_sd                  =   2.6208879767472E-08
(PID.TID 0000.0001) %MON exf_evap_del2                =   5.1871791513469E-10
(PID.TID 0000.0001) %MON exf_precip_max               =   1.3952384585115E-07
(PID.TID 0000.0001) %MON exf_precip_min               =   5.3077344114464E-10
(PID.TID 0000.0001) %MON exf_precip_mean              =   3.5682119318092E-08
(PID.TID 0000.0001) %MON exf_precip_sd                =   2.7040348785954E-08
(PID.TID 0000.0001) %MON exf_precip_del2              =   3.5132492275588E-10
(PID.TID 0000.0001) %MON exf_swflux_max               =  -0.0000000000000E+00
(PID.TID 0000.0001) %MON exf_swflux_min               =  -3.0845467530380E+02
(PID.TID 0000.0001) %MON exf_swflux_mean              =  -1.8594498934906E+02
(PID.TID 0000.0001) %MON exf_swflux_sd                =   8.1334977965151E+01
(PID.TID 0000.0001) %MON exf_swflux_del2              =   1.4904150598609E+00
(PID.TID 0000.0001) %MON exf_swdown_max               =   3.3025125835525E+02
(PID.TID 0000.0001) %MON exf_swdown_min               =   0.0000000000000E+00
(PID.TID 0000.0001) %MON exf_swdown_mean              =   1.9908457103754E+02
(PID.TID 0000.0001) %MON exf_swdown_sd                =   8.7082417521575E+01
(PID.TID 0000.0001) %MON exf_swdown_del2              =   1.5957334688018E+00
(PID.TID 0000.0001) %MON exf_lwdown_max               =   4.3277303775860E+02
(PID.TID 0000.0001) %MON exf_lwdown_min               =   1.7252053850229E+02
(PID.TID 0000.0001) %MON exf_lwdown_mean              =   3.5335818497133E+02
(PID.TID 0000.0001) %MON exf_lwdown_sd                =   5.7612778170263E+01
(PID.TID 0000.0001) %MON exf_lwdown_del2              =   2.6113817908779E+00
(PID.TID 0000.0001) %MON exf_climsss_max              =   3.9969207825199E+01
(PID.TID 0000.0001) %MON exf_climsss_min              =   1.7859735324819E+01
(PID.TID 0000.0001) %MON exf_climsss_mean             =   3.4682941365048E+01
(PID.TID 0000.0001) %MON exf_climsss_sd               =   1.4106306244971E+00
(PID.TID 0000.0001) %MON exf_climsss_del2             =   4.9150146478629E-03
(PID.TID 0000.0001) // =======================================================
(PID.TID 0000.0001) // End MONITOR EXF statistics
(PID.TID 0000.0001) // =======================================================
 cg2d: Sum(rhs),rhsMax =   3.74608559882526E+00  3.61302462958173E+00
 cg2d: Sum(rhs),rhsMax =   4.45761416646582E+00  3.33597383815632E+00
(PID.TID 0000.0001)      cg2d_init_res =   4.96706438341623E+00
(PID.TID 0000.0001)      cg2d_iters(min,last) =      -1      30
(PID.TID 0000.0001)      cg2d_last_res =   1.33728065529280E-05
(PID.TID 0000.0001) // =======================================================
(PID.TID 0000.0001) // Begin MONITOR dynamic field statistics
(PID.TID 0000.0001) // =======================================================
(PID.TID 0000.0001) %MON time_tsnumber                =                     6
(PID.TID 0000.0001) %MON time_secondsf                =   2.1600000000000E+04
(PID.TID 0000.0001) %MON dynstat_eta_max              =   1.1390576244349E+00
(PID.TID 0000.0001) %MON dynstat_eta_min              =  -1.1266696127647E+00
(PID.TID 0000.0001) %MON dynstat_eta_mean             =  -9.6548815206967E-04
(PID.TID 0000.0001) %MON dynstat_eta_sd               =   3.7119527726446E-01
(PID.TID 0000.0001) %MON dynstat_eta_del2             =   1.1463462334811E-03
(PID.TID 0000.0001) %MON dynstat_uvel_max             =   5.7251901373520E-01
(PID.TID 0000.0001) %MON dynstat_uvel_min             =  -4.7731680595857E-01
(PID.TID 0000.0001) %MON dynstat_uvel_mean            =  -2.3510304108570E-03
(PID.TID 0000.0001) %MON dynstat_uvel_sd              =   2.0436489969945E-02
(PID.TID 0000.0001) %MON dynstat_uvel_del2            =   8.2992862163873E-05
(PID.TID 0000.0001) %MON dynstat_vvel_max             =   1.1805123309400E+00
(PID.TID 0000.0001) %MON dynstat_vvel_min             =  -6.5077157119703E-01
(PID.TID 0000.0001) %MON dynstat_vvel_mean            =  -2.1367240502271E-03
(PID.TID 0000.0001) %MON dynstat_vvel_sd              =   2.2642421910301E-02
(PID.TID 0000.0001) %MON dynstat_vvel_del2            =   8.8188712516393E-05
(PID.TID 0000.0001) %MON dynstat_wvel_max             =   3.5338487250441E-03
(PID.TID 0000.0001) %MON dynstat_wvel_min             =  -2.5103840631151E-03
(PID.TID 0000.0001) %MON dynstat_wvel_mean            =   6.3673465280513E-08
(PID.TID 0000.0001) %MON dynstat_wvel_sd              =   6.8943371109096E-05
(PID.TID 0000.0001) %MON dynstat_wvel_del2            =   2.9264809234533E-07
(PID.TID 0000.0001) %MON dynstat_theta_max            =   3.0153490706920E+01
(PID.TID 0000.0001) %MON dynstat_theta_min            =  -1.9029464932251E+00
(PID.TID 0000.0001) %MON dynstat_theta_mean           =   3.5950597931844E+00
(PID.TID 0000.0001) %MON dynstat_theta_sd             =   4.4461718897577E+00
(PID.TID 0000.0001) %MON dynstat_theta_del2           =   1.6209151530762E-03
(PID.TID 0000.0001) %MON dynstat_salt_max             =   4.0976385713245E+01
(PID.TID 0000.0001) %MON dynstat_salt_min             =   2.8981819416445E+01
(PID.TID 0000.0001) %MON dynstat_salt_mean            =   3.4726333694657E+01
(PID.TID 0000.0001) %MON dynstat_salt_sd              =   4.0067566945383E-01
(PID.TID 0000.0001) %MON dynstat_salt_del2            =   3.3721089059710E-04
(PID.TID 0000.0001) %MON forcing_qnet_max             =   8.2890274289058E+02
(PID.TID 0000.0001) %MON forcing_qnet_min             =  -2.9393152004054E+02
(PID.TID 0000.0001) %MON forcing_qnet_mean            =  -2.6516137877063E+01
(PID.TID 0000.0001) %MON forcing_qnet_sd              =   1.3337915578441E+02
(PID.TID 0000.0001) %MON forcing_qnet_del2            =   1.2852089887606E+00
(PID.TID 0000.0001) %MON forcing_qsw_max              =   0.0000000000000E+00
(PID.TID 0000.0001) %MON forcing_qsw_min              =  -3.0857197392816E+02
(PID.TID 0000.0001) %MON forcing_qsw_mean             =  -1.8594823692231E+02
(PID.TID 0000.0001) %MON forcing_qsw_sd               =   8.1328362021626E+01
(PID.TID 0000.0001) %MON forcing_qsw_del2             =   1.6143344025971E-01
(PID.TID 0000.0001) %MON forcing_empmr_max            =   2.2778143077185E-03
(PID.TID 0000.0001) %MON forcing_empmr_min            =  -1.2249781527389E-04
(PID.TID 0000.0001) %MON forcing_empmr_mean           =   4.4148973182772E-05
(PID.TID 0000.0001) %MON forcing_empmr_sd             =   2.5107327480886E-04
(PID.TID 0000.0001) %MON forcing_empmr_del2           =   2.3254537688906E-06
(PID.TID 0000.0001) %MON forcing_fu_max               =   1.0766837752321E+00
(PID.TID 0000.0001) %MON forcing_fu_min               =  -7.6435992870574E-01
(PID.TID 0000.0001) %MON forcing_fu_mean              =  -7.4109481456452E-03
(PID.TID 0000.0001) %MON forcing_fu_sd                =   1.1770231754556E-01
(PID.TID 0000.0001) %MON forcing_fu_del2              =   1.5576211546204E-03
(PID.TID 0000.0001) %MON forcing_fv_max               =   1.6531312248496E+00
(PID.TID 0000.0001) %MON forcing_fv_min               =  -6.8048815906019E-01
(PID.TID 0000.0001) %MON forcing_fv_mean              =  -2.0518782586602E-02
(PID.TID 0000.0001) %MON forcing_fv_sd                =   1.1858586409407E-01
(PID.TID 0000.0001) %MON forcing_fv_del2              =   1.5104364514528E-03
(PID.TID 0000.0001) %MON trAdv_CFL_u_max              =   9.5466576028930E-03
(PID.TID 0000.0001) %MON trAdv_CFL_v_max              =   1.1727681588203E-02
(PID.TID 0000.0001) %MON trAdv_CFL_w_max              =   1.6550013018900E-01
(PID.TID 0000.0001) %MON advcfl_uvel_max              =   7.0353686252443E-03
(PID.TID 0000.0001) %MON advcfl_vvel_max              =   1.3905534748090E-02
(PID.TID 0000.0001) %MON advcfl_wvel_max              =   1.7318209622396E-01
(PID.TID 0000.0001) %MON advcfl_W_hf_max              =   1.8098925432102E-01
(PID.TID 0000.0001) %MON pe_b_mean                    =   1.8146742470790E-04
(PID.TID 0000.0001) %MON ke_max                       =   3.5061127776329E-01
(PID.TID 0000.0001) %MON ke_mean                      =   4.3301712453258E-04
(PID.TID 0000.0001) %MON ke_vol                       =   1.3542977276382E+18
(PID.TID 0000.0001) %MON vort_r_min                   =  -3.7495794275164E-06
(PID.TID 0000.0001) %MON vort_r_max                   =   3.8350324426902E-06
(PID.TID 0000.0001) %MON vort_a_mean                  =  -1.9720793743754E-05
(PID.TID 0000.0001) %MON vort_a_sd                    =   7.5192771505953E-05
(PID.TID 0000.0001) %MON vort_p_mean                  =  -2.3385734511743E-05
(PID.TID 0000.0001) %MON vort_p_sd                    =   1.1229484254881E-04
(PID.TID 0000.0001) %MON surfExpan_theta_mean         =   1.4614783284991E-05
(PID.TID 0000.0001) %MON surfExpan_salt_mean          =   4.6210425026915E-07
(PID.TID 0000.0001) // =======================================================
(PID.TID 0000.0001) // End MONITOR dynamic field statistics
(PID.TID 0000.0001) // =======================================================
(PID.TID 0000.0001) // =======================================================
(PID.TID 0000.0001) // Begin MONITOR SEAICE statistics
(PID.TID 0000.0001) // =======================================================
(PID.TID 0000.0001) %MON seaice_tsnumber              =                     6
(PID.TID 0000.0001) %MON seaice_time_sec              =   2.1600000000000E+04
(PID.TID 0000.0001) %MON seaice_uice_max              =   4.0000000000000E-01
(PID.TID 0000.0001) %MON seaice_uice_min              =  -4.0000000000000E-01
(PID.TID 0000.0001) %MON seaice_uice_mean             =  -1.8883545198230E-02
(PID.TID 0000.0001) %MON seaice_uice_sd               =   1.8855865594377E-01
(PID.TID 0000.0001) %MON seaice_uice_del2             =   2.2806532047810E-03
(PID.TID 0000.0001) %MON seaice_vice_max              =   4.0000000000000E-01
(PID.TID 0000.0001) %MON seaice_vice_min              =  -4.0000000000000E-01
(PID.TID 0000.0001) %MON seaice_vice_mean             =  -5.4666809335036E-02
(PID.TID 0000.0001) %MON seaice_vice_sd               =   1.8652100759787E-01
(PID.TID 0000.0001) %MON seaice_vice_del2             =   2.3474458701495E-03
(PID.TID 0000.0001) %MON seaice_area_max              =   1.2360203961632E-01
(PID.TID 0000.0001) %MON seaice_area_min              =   0.0000000000000E+00
(PID.TID 0000.0001) %MON seaice_area_mean             =   2.5886239340013E-03
(PID.TID 0000.0001) %MON seaice_area_sd               =   1.3669682798324E-02
(PID.TID 0000.0001) %MON seaice_area_del2             =   1.2765191169403E-04
(PID.TID 0000.0001) %MON seaice_heff_max              =   5.6496045389344E-02
(PID.TID 0000.0001) %MON seaice_heff_min              =   0.0000000000000E+00
(PID.TID 0000.0001) %MON seaice_heff_mean             =   1.0915727150087E-03
(PID.TID 0000.0001) %MON seaice_heff_sd               =   6.0053130762430E-03
(PID.TID 0000.0001) %MON seaice_heff_del2             =   5.4907322292164E-05
(PID.TID 0000.0001) %MON seaice_hsnow_max             =   5.5987949556495E-05
(PID.TID 0000.0001) %MON seaice_hsnow_min             =   0.0000000000000E+00
(PID.TID 0000.0001) %MON seaice_hsnow_mean            =   4.7314491461883E-07
(PID.TID 0000.0001) %MON seaice_hsnow_sd              =   3.0012147480166E-06
(PID.TID 0000.0001) %MON seaice_hsnow_del2            =   4.9367759686496E-08
(PID.TID 0000.0001) // =======================================================
(PID.TID 0000.0001) // End MONITOR SEAICE statistics
(PID.TID 0000.0001) // =======================================================
(PID.TID 0000.0001) // =======================================================
(PID.TID 0000.0001) // Begin MONITOR EXF statistics
(PID.TID 0000.0001) // =======================================================
(PID.TID 0000.0001) %MON exf_tsnumber                 =                     6
(PID.TID 0000.0001) %MON exf_time_sec                 =   2.1600000000000E+04
(PID.TID 0000.0001) %MON exf_ustress_max              =   1.1037075319256E+00
(PID.TID 0000.0001) %MON exf_ustress_min              =  -7.9086473786258E-01
(PID.TID 0000.0001) %MON exf_ustress_mean             =  -7.2757391525213E-03
(PID.TID 0000.0001) %MON exf_ustress_sd               =   1.1986047778936E-01
(PID.TID 0000.0001) %MON exf_ustress_del2             =   1.9240206332203E-03
(PID.TID 0000.0001) %MON exf_vstress_max              =   1.7385360531521E+00
(PID.TID 0000.0001) %MON exf_vstress_min              =  -7.8631232392511E-01
(PID.TID 0000.0001) %MON exf_vstress_mean             =  -1.9823714102123E-02
(PID.TID 0000.0001) %MON exf_vstress_sd               =   1.2112287882203E-01
(PID.TID 0000.0001) %MON exf_vstress_del2             =   1.8347808452520E-03
(PID.TID 0000.0001) %MON exf_hflux_max                =   9.2886219769115E+02
(PID.TID 0000.0001) %MON exf_hflux_min                =  -2.8476995926066E+02
(PID.TID 0000.0001) %MON exf_hflux_mean               =  -1.1271891370058E+01
(PID.TID 0000.0001) %MON exf_hflux_sd                 =   1.6836909458951E+02
(PID.TID 0000.0001) %MON exf_hflux_del2               =   1.9183387149869E+00
(PID.TID 0000.0001) %MON exf_sflux_max                =   1.7452539012757E-07
(PID.TID 0000.0001) %MON exf_sflux_min                =  -1.2342284317824E-07
(PID.TID 0000.0001) %MON exf_sflux_mean               =   1.4077497796250E-09
(PID.TID 0000.0001) %MON exf_sflux_sd                 =   3.4416292781331E-08
(PID.TID 0000.0001) %MON exf_sflux_del2               =   4.8574493068619E-10
(PID.TID 0000.0001) %MON exf_uwind_max                =   2.0472183881203E+01
(PID.TID 0000.0001) %MON exf_uwind_min                =  -1.8892726999294E+01
(PID.TID 0000.0001) %MON exf_uwind_mean               =  -5.9875629441651E-01
(PID.TID 0000.0001) %MON exf_uwind_sd                 =   5.9759295007774E+00
(PID.TID 0000.0001) %MON exf_uwind_del2               =   8.2093294037172E-02
(PID.TID 0000.0001) %MON exf_vwind_max                =   2.5398446093788E+01
(PID.TID 0000.0001) %MON exf_vwind_min                =  -1.8180781331323E+01
(PID.TID 0000.0001) %MON exf_vwind_mean               =  -1.6389750508607E+00
(PID.TID 0000.0001) %MON exf_vwind_sd                 =   5.8273953951259E+00
(PID.TID 0000.0001) %MON exf_vwind_del2               =   8.1895904122027E-02
(PID.TID 0000.0001) %MON exf_wspeed_max               =   2.5487856396312E+01
(PID.TID 0000.0001) %MON exf_wspeed_min               =   8.6529810061982E-02
(PID.TID 0000.0001) %MON exf_wspeed_mean              =   7.8462667677611E+00
(PID.TID 0000.0001) %MON exf_wspeed_sd                =   3.3393287672781E+00
(PID.TID 0000.0001) %MON exf_wspeed_del2              =   9.3336019851782E-02
(PID.TID 0000.0001) %MON exf_atemp_max                =   3.0377396101104E+02
(PID.TID 0000.0001) %MON exf_atemp_min                =   2.3197451078973E+02
(PID.TID 0000.0001) %MON exf_atemp_mean               =   2.8923937843637E+02
(PID.TID 0000.0001) %MON exf_atemp_sd                 =   1.2571049820660E+01
(PID.TID 0000.0001) %MON exf_atemp_del2               =   1.5168910867359E-01
(PID.TID 0000.0001) %MON exf_aqh_max                  =   2.1546618430271E-02
(PID.TID 0000.0001) %MON exf_aqh_min                  =  -8.2758663597158E-04
(PID.TID 0000.0001) %MON exf_aqh_mean                 =   1.1117549135381E-02
(PID.TID 0000.0001) %MON exf_aqh_sd                   =   5.7693447327525E-03
(PID.TID 0000.0001) %MON exf_aqh_del2                 =   9.2570459671690E-05
(PID.TID 0000.0001) %MON exf_lwflux_max               =   1.3816578923415E+02
(PID.TID 0000.0001) %MON exf_lwflux_min               =   2.1104555773288E+01
(PID.TID 0000.0001) %MON exf_lwflux_mean              =   5.7446812046688E+01
(PID.TID 0000.0001) %MON exf_lwflux_sd                =   1.7576653104767E+01
(PID.TID 0000.0001) %MON exf_lwflux_del2              =   4.3433120172316E-01
(PID.TID 0000.0001) %MON exf_evap_max                 =   2.0912895594668E-07
(PID.TID 0000.0001) %MON exf_evap_min                 =  -2.7173197723056E-08
(PID.TID 0000.0001) %MON exf_evap_mean                =   3.7089471371824E-08
(PID.TID 0000.0001) %MON exf_evap_sd                  =   2.5811478764311E-08
(PID.TID 0000.0001) %MON exf_evap_del2                =   5.0412193075587E-10
(PID.TID 0000.0001) %MON exf_precip_max               =   1.3952566577185E-07
(PID.TID 0000.0001) %MON exf_precip_min               =   5.2872901939645E-10
(PID.TID 0000.0001) %MON exf_precip_mean              =   3.5681721592199E-08
(PID.TID 0000.0001) %MON exf_precip_sd                =   2.7044785972952E-08
(PID.TID 0000.0001) %MON exf_precip_del2              =   3.5131368413684E-10
(PID.TID 0000.0001) %MON exf_swflux_max               =  -0.0000000000000E+00
(PID.TID 0000.0001) %MON exf_swflux_min               =  -3.0868927255252E+02
(PID.TID 0000.0001) %MON exf_swflux_mean              =  -1.8596159691840E+02
(PID.TID 0000.0001) %MON exf_swflux_sd                =   8.1302897993783E+01
(PID.TID 0000.0001) %MON exf_swflux_del2              =   1.4904783365774E+00
(PID.TID 0000.0001) %MON exf_swdown_max               =   3.3050243313975E+02
(PID.TID 0000.0001) %MON exf_swdown_min               =   0.0000000000000E+00
(PID.TID 0000.0001) %MON exf_swdown_mean              =   1.9910235216103E+02
(PID.TID 0000.0001) %MON exf_swdown_sd                =   8.7048070657155E+01
(PID.TID 0000.0001) %MON exf_swdown_del2              =   1.5958012168923E+00
(PID.TID 0000.0001) %MON exf_lwdown_max               =   4.3242861563053E+02
(PID.TID 0000.0001) %MON exf_lwdown_min               =   1.7265985369293E+02
(PID.TID 0000.0001) %MON exf_lwdown_mean              =   3.5335503620575E+02
(PID.TID 0000.0001) %MON exf_lwdown_sd                =   5.7582670557818E+01
(PID.TID 0000.0001) %MON exf_lwdown_del2              =   2.6109167112130E+00
(PID.TID 0000.0001) %MON exf_climsss_max              =   3.9968531916218E+01
(PID.TID 0000.0001) %MON exf_climsss_min              =   1.7862026030017E+01
(PID.TID 0000.0001) %MON exf_climsss_mean             =   3.4682964341320E+01
(PID.TID 0000.0001) %MON exf_climsss_sd               =   1.4104525485945E+00
(PID.TID 0000.0001) %MON exf_climsss_del2             =   4.9153385445087E-03
(PID.TID 0000.0001) // =======================================================
(PID.TID 0000.0001) // End MONITOR EXF statistics
(PID.TID 0000.0001) // =======================================================
 cg2d: Sum(rhs),rhsMax =   5.15911012251587E+00  3.10707882939577E+00
 cg2d: Sum(rhs),rhsMax =   5.85339071336659E+00  2.96283946876159E+00
(PID.TID 0000.0001)      cg2d_init_res =   4.22708931409487E+00
(PID.TID 0000.0001)      cg2d_iters(min,last) =      -1      29
(PID.TID 0000.0001)      cg2d_last_res =   1.64667855614881E-05
(PID.TID 0000.0001) // =======================================================
(PID.TID 0000.0001) // Begin MONITOR dynamic field statistics
(PID.TID 0000.0001) // =======================================================
(PID.TID 0000.0001) %MON time_tsnumber                =                     8
(PID.TID 0000.0001) %MON time_secondsf                =   2.8800000000000E+04
(PID.TID 0000.0001) %MON dynstat_eta_max              =   1.2517419384524E+00
(PID.TID 0000.0001) %MON dynstat_eta_min              =  -9.5711956584156E-01
(PID.TID 0000.0001) %MON dynstat_eta_mean             =  -1.2676716993142E-03
(PID.TID 0000.0001) %MON dynstat_eta_sd               =   3.7977402846405E-01
(PID.TID 0000.0001) %MON dynstat_eta_del2             =   1.1361003503855E-03
(PID.TID 0000.0001) %MON dynstat_uvel_max             =   6.2994754865445E-01
(PID.TID 0000.0001) %MON dynstat_uvel_min             =  -5.8152032886353E-01
(PID.TID 0000.0001) %MON dynstat_uvel_mean            =  -2.1089661483879E-03
(PID.TID 0000.0001) %MON dynstat_uvel_sd              =   2.2499026990133E-02
(PID.TID 0000.0001) %MON dynstat_uvel_del2            =   1.0094318696491E-04
(PID.TID 0000.0001) %MON dynstat_vvel_max             =   1.4625188160682E+00
(PID.TID 0000.0001) %MON dynstat_vvel_min             =  -8.5209188736415E-01
(PID.TID 0000.0001) %MON dynstat_vvel_mean            =  -2.1681990306254E-03
(PID.TID 0000.0001) %MON dynstat_vvel_sd              =   2.5165808152818E-02
(PID.TID 0000.0001) %MON dynstat_vvel_del2            =   1.0848780047927E-04
(PID.TID 0000.0001) %MON dynstat_wvel_max             =   4.5278920800505E-03
(PID.TID 0000.0001) %MON dynstat_wvel_min             =  -3.2890786515826E-03
(PID.TID 0000.0001) %MON dynstat_wvel_mean            =   1.9072414649075E-07
(PID.TID 0000.0001) %MON dynstat_wvel_sd              =   7.8644193035970E-05
(PID.TID 0000.0001) %MON dynstat_wvel_del2            =   3.4783248630797E-07
(PID.TID 0000.0001) %MON dynstat_theta_max            =   3.0152078185557E+01
(PID.TID 0000.0001) %MON dynstat_theta_min            =  -1.9023458179313E+00
(PID.TID 0000.0001) %MON dynstat_theta_mean           =   3.5950801892071E+00
(PID.TID 0000.0001) %MON dynstat_theta_sd             =   4.4462020475466E+00
(PID.TID 0000.0001) %MON dynstat_theta_del2           =   1.6126513004355E-03
(PID.TID 0000.0001) %MON dynstat_salt_max             =   4.0970628945425E+01
(PID.TID 0000.0001) %MON dynstat_salt_min             =   2.8976439283718E+01
(PID.TID 0000.0001) %MON dynstat_salt_mean            =   3.4726336750298E+01
(PID.TID 0000.0001) %MON dynstat_salt_sd              =   4.0065222840572E-01
(PID.TID 0000.0001) %MON dynstat_salt_del2            =   3.3660976506241E-04
(PID.TID 0000.0001) %MON forcing_qnet_max             =   8.9467064226146E+02
(PID.TID 0000.0001) %MON forcing_qnet_min             =  -2.7985063978977E+02
(PID.TID 0000.0001) %MON forcing_qnet_mean            =  -2.6250327931109E+01
(PID.TID 0000.0001) %MON forcing_qnet_sd              =   1.3326996506193E+02
(PID.TID 0000.0001) %MON forcing_qnet_del2            =   1.2739659756147E+00
(PID.TID 0000.0001) %MON forcing_qsw_max              =   0.0000000000000E+00
(PID.TID 0000.0001) %MON forcing_qsw_min              =  -3.0880657117689E+02
(PID.TID 0000.0001) %MON forcing_qsw_mean             =  -1.8596261138738E+02
(PID.TID 0000.0001) %MON forcing_qsw_sd               =   8.1304302303034E+01
(PID.TID 0000.0001) %MON forcing_qsw_del2             =   1.5794339730377E-01
(PID.TID 0000.0001) %MON forcing_empmr_max            =   2.3214742447796E-03
(PID.TID 0000.0001) %MON forcing_empmr_min            =  -1.2725809665776E-04
(PID.TID 0000.0001) %MON forcing_empmr_mean           =   4.2950249857747E-05
(PID.TID 0000.0001) %MON forcing_empmr_sd             =   2.4417459500204E-04
(PID.TID 0000.0001) %MON forcing_empmr_del2           =   2.1848182674088E-06
(PID.TID 0000.0001) %MON forcing_fu_max               =   1.0826314933295E+00
(PID.TID 0000.0001) %MON forcing_fu_min               =  -7.0251810086758E-01
(PID.TID 0000.0001) %MON forcing_fu_mean              =  -8.2765242538701E-03
(PID.TID 0000.0001) %MON forcing_fu_sd                =   1.1863221073341E-01
(PID.TID 0000.0001) %MON forcing_fu_del2              =   1.5808040746810E-03
(PID.TID 0000.0001) %MON forcing_fv_max               =   1.7003916741583E+00
(PID.TID 0000.0001) %MON forcing_fv_min               =  -8.0212092204018E-01
(PID.TID 0000.0001) %MON forcing_fv_mean              =  -2.0036979886180E-02
(PID.TID 0000.0001) %MON forcing_fv_sd                =   1.2106510226447E-01
(PID.TID 0000.0001) %MON forcing_fv_del2              =   1.5680861855907E-03
(PID.TID 0000.0001) %MON trAdv_CFL_u_max              =   1.1675502676345E-02
(PID.TID 0000.0001) %MON trAdv_CFL_v_max              =   1.5035601909948E-02
(PID.TID 0000.0001) %MON trAdv_CFL_w_max              =   2.1089633110668E-01
(PID.TID 0000.0001) %MON advcfl_uvel_max              =   7.8753296456467E-03
(PID.TID 0000.0001) %MON advcfl_vvel_max              =   1.7227356024633E-02
(PID.TID 0000.0001) %MON advcfl_wvel_max              =   2.2079446459594E-01
(PID.TID 0000.0001) %MON advcfl_W_hf_max              =   2.3093745417620E-01
(PID.TID 0000.0001) %MON pe_b_mean                    =   1.8987366426987E-04
(PID.TID 0000.0001) %MON ke_max                       =   5.3813407904197E-01
(PID.TID 0000.0001) %MON ke_mean                      =   5.2893710680428E-04
(PID.TID 0000.0001) %MON ke_vol                       =   1.3542976161516E+18
(PID.TID 0000.0001) %MON vort_r_min                   =  -4.4706133493088E-06
(PID.TID 0000.0001) %MON vort_r_max                   =   4.7511635081360E-06
(PID.TID 0000.0001) %MON vort_a_mean                  =  -1.9720793743754E-05
(PID.TID 0000.0001) %MON vort_a_sd                    =   7.5193059943451E-05
(PID.TID 0000.0001) %MON vort_p_mean                  =  -2.3385740316416E-05
(PID.TID 0000.0001) %MON vort_p_sd                    =   1.1229538633636E-04
(PID.TID 0000.0001) %MON surfExpan_theta_mean         =   6.8441808963920E-06
(PID.TID 0000.0001) %MON surfExpan_salt_mean          =  -1.1326287630433E-07
(PID.TID 0000.0001) // =======================================================
(PID.TID 0000.0001) // End MONITOR dynamic field statistics
(PID.TID 0000.0001) // =======================================================
(PID.TID 0000.0001) // =======================================================
(PID.TID 0000.0001) // Begin MONITOR SEAICE statistics
(PID.TID 0000.0001) // =======================================================
(PID.TID 0000.0001) %MON seaice_tsnumber              =                     8
(PID.TID 0000.0001) %MON seaice_time_sec              =   2.8800000000000E+04
(PID.TID 0000.0001) %MON seaice_uice_max              =   4.0000000000000E-01
(PID.TID 0000.0001) %MON seaice_uice_min              =  -4.0000000000000E-01
(PID.TID 0000.0001) %MON seaice_uice_mean             =  -2.0125015806102E-02
(PID.TID 0000.0001) %MON seaice_uice_sd               =   1.9401425161491E-01
(PID.TID 0000.0001) %MON seaice_uice_del2             =   2.4059935359904E-03
(PID.TID 0000.0001) %MON seaice_vice_max              =   4.0000000000000E-01
(PID.TID 0000.0001) %MON seaice_vice_min              =  -4.0000000000000E-01
(PID.TID 0000.0001) %MON seaice_vice_mean             =  -5.6032168262122E-02
(PID.TID 0000.0001) %MON seaice_vice_sd               =   1.9397438222301E-01
(PID.TID 0000.0001) %MON seaice_vice_del2             =   2.4451765225315E-03
(PID.TID 0000.0001) %MON seaice_area_max              =   1.6121956407390E-01
(PID.TID 0000.0001) %MON seaice_area_min              =   0.0000000000000E+00
(PID.TID 0000.0001) %MON seaice_area_mean             =   3.4332297665808E-03
(PID.TID 0000.0001) %MON seaice_area_sd               =   1.8035737713302E-02
(PID.TID 0000.0001) %MON seaice_area_del2             =   1.6753780942461E-04
(PID.TID 0000.0001) %MON seaice_heff_max              =   7.3542283717676E-02
(PID.TID 0000.0001) %MON seaice_heff_min              =   0.0000000000000E+00
(PID.TID 0000.0001) %MON seaice_heff_mean             =   1.4331232104475E-03
(PID.TID 0000.0001) %MON seaice_heff_sd               =   7.8738037374520E-03
(PID.TID 0000.0001) %MON seaice_heff_del2             =   7.0030891660313E-05
(PID.TID 0000.0001) %MON seaice_hsnow_max             =   1.0295657522492E-04
(PID.TID 0000.0001) %MON seaice_hsnow_min             =   0.0000000000000E+00
(PID.TID 0000.0001) %MON seaice_hsnow_mean            =   8.8502147588823E-07
(PID.TID 0000.0001) %MON seaice_hsnow_sd              =   5.6086171146556E-06
(PID.TID 0000.0001) %MON seaice_hsnow_del2            =   9.2814095013061E-08
(PID.TID 0000.0001) // =======================================================
(PID.TID 0000.0001) // End MONITOR SEAICE statistics
(PID.TID 0000.0001) // =======================================================
(PID.TID 0000.0001) %CHECKPOINT         8 ckptA
(PID.TID 0000.0001) 
(PID.TID 0000.0001) == cost_profiles: begin ==
(PID.TID 0000.0001) == cost_profiles: end   ==
(PID.TID 0000.0001) 
(PID.TID 0000.0001) boxmean/horflux :  1  0.00000000000000E+00
(PID.TID 0000.0001) boxmean/horflux :  2  0.00000000000000E+00
(PID.TID 0000.0001) boxmean/horflux :  3  0.00000000000000E+00
(PID.TID 0000.0001) boxmean/horflux :  4  0.00000000000000E+00
(PID.TID 0000.0001) boxmean/horflux :  5  8.91736899021225E+00
(PID.TID 0000.0001) boxmean/horflux :  6  0.00000000000000E+00
(PID.TID 0000.0001) boxmean/horflux :  7  0.00000000000000E+00
(PID.TID 0000.0001) boxmean/horflux :  8  0.00000000000000E+00
(PID.TID 0000.0001) boxmean/horflux :  9  0.00000000000000E+00
(PID.TID 0000.0001) boxmean/horflux fc : 8.91736899021225E+00
(PID.TID 0000.0001) boxmean/horflux :  1  0.00000000000000E+00
(PID.TID 0000.0001) boxmean/horflux :  2  6.61126619742839E+06
(PID.TID 0000.0001) boxmean/horflux :  3 -2.69268961979167E+06
(PID.TID 0000.0001) boxmean/horflux :  4 -1.68597068195530E+07
(PID.TID 0000.0001) boxmean/horflux :  5 -2.66222846954753E+07
(PID.TID 0000.0001) boxmean/horflux :  6 -2.57707154405382E+07
(PID.TID 0000.0001) boxmean/horflux :  7 -1.27748585496962E+07
(PID.TID 0000.0001) boxmean/horflux :  8  9.16186023741319E+06
(PID.TID 0000.0001) boxmean/horflux :  9  3.41604627083333E+07
(PID.TID 0000.0001) boxmean/horflux fc :-3.47866659818793E+07
(PID.TID 0000.0001) Inside cost_gencost_moc ...
(PID.TID 0000.0001) Cost    3: m_trVol_step
(PID.TID 0000.0001) **Warning: temporal msk file: north10_maskT not found, using 1/nrecloc
(PID.TID 0000.0001) moc cost m_trVol_step  1  0.00000000000000E+00kmax:  1
(PID.TID 0000.0001) **Warning: temporal msk file: north10_maskT not found, using 1/nrecloc
(PID.TID 0000.0001) moc cost m_trVol_step  2 -3.35248229166667E+04kmax: 50
(PID.TID 0000.0001) **Warning: temporal msk file: north10_maskT not found, using 1/nrecloc
(PID.TID 0000.0001) moc cost m_trVol_step  3  2.69268963234923E+06kmax:  1
(PID.TID 0000.0001) **Warning: temporal msk file: north10_maskT not found, using 1/nrecloc
(PID.TID 0000.0001) moc cost m_trVol_step  4  1.68597068387265E+07kmax:  1
(PID.TID 0000.0001) **Warning: temporal msk file: north10_maskT not found, using 1/nrecloc
(PID.TID 0000.0001) moc cost m_trVol_step  5  2.66222846316134E+07kmax:  1
(PID.TID 0000.0001) **Warning: temporal msk file: north10_maskT not found, using 1/nrecloc
(PID.TID 0000.0001) moc cost m_trVol_step  6  2.57707153613288E+07kmax:  1
(PID.TID 0000.0001) **Warning: temporal msk file: north10_maskT not found, using 1/nrecloc
(PID.TID 0000.0001) moc cost m_trVol_step  7  1.27748586224791E+07kmax:  1
(PID.TID 0000.0001) **Warning: temporal msk file: north10_maskT not found, using 1/nrecloc
(PID.TID 0000.0001) moc cost m_trVol_step  8  2.77664357638889E+04kmax: 50
(PID.TID 0000.0001) **Warning: temporal msk file: north10_maskT not found, using 1/nrecloc
(PID.TID 0000.0001) moc cost m_trVol_step  9  2.83677986111111E+04kmax: 50
(PID.TID 0000.0001) moc fc:  8.47428644979553E+07
(PID.TID 0000.0001)  --> f_gencost = 0.891736899021225D+01 1
(PID.TID 0000.0001)  --> f_gencost =-0.347866659818793D+08 2
(PID.TID 0000.0001)  --> f_gencost = 0.847428644979553D+08 3
(PID.TID 0000.0001)  --> f_gentim2d = 0.000000000000000D+00 1
(PID.TID 0000.0001)  --> f_gentim2d = 0.000000000000000D+00 2
(PID.TID 0000.0001)  --> f_gentim2d = 0.000000000000000D+00 3
(PID.TID 0000.0001)  --> f_gentim2d = 0.000000000000000D+00 4
(PID.TID 0000.0001)  --> f_gentim2d = 0.000000000000000D+00 5
(PID.TID 0000.0001)  --> f_genarr3d = 0.000000000000000D+00 1
(PID.TID 0000.0001)  --> f_genarr3d = 0.000000000000000D+00 2
(PID.TID 0000.0001)  --> f_genarr3d = 0.000000000000000D+00 3
(PID.TID 0000.0001)  --> fc               = 0.139129888418199D+09
(PID.TID 0000.0001)   early fc =  0.000000000000000D+00
(PID.TID 0000.0001)   local fc =  0.792157164295470D+08
(PID.TID 0000.0001)  global fc =  0.139129888418199D+09
(PID.TID 0000.0001) whio : write lev 2 rec   1
(PID.TID 0000.0001) SOLVE_FOR_PRESSURE: putPmEinXvector =    F
 cg2d: Sum(rhs),rhsMax =   7.73551084252226E-01  3.29048622472774E+00
 cg2d: Sum(rhs),rhsMax =   1.52697357776816E+00  4.17022503399603E+00
 cg2d: Sum(rhs),rhsMax =   2.27601764070151E+00  4.04197234578102E+00
 cg2d: Sum(rhs),rhsMax =   3.02165606792587E+00  3.85995024094881E+00
(PID.TID 0000.0001) whio : write lev 2 rec   2
 cg2d: Sum(rhs),rhsMax =   3.74608559882543E+00  3.61302462958151E+00
 cg2d: Sum(rhs),rhsMax =   4.45761416646636E+00  3.33597383815620E+00
 cg2d: Sum(rhs),rhsMax =   5.15911012251672E+00  3.10707882939607E+00
 cg2d: Sum(rhs),rhsMax =   5.85339071336745E+00  2.96283946876190E+00
(PID.TID 0000.0001) Did not write pickup because writePickupAtEnd = FALSE
(PID.TID 0000.0001) whio : write lev 2 rec   3
 cg2d: Sum(rhs),rhsMax =   3.74608577798608E+00  3.61303114709572E+00
 cg2d: Sum(rhs),rhsMax =   4.45761761977414E+00  3.33597889011444E+00
 cg2d: Sum(rhs),rhsMax =   5.15911604140319E+00  3.10708255938893E+00
 cg2d: Sum(rhs),rhsMax =   5.85339734149190E+00  2.96284271209732E+00
(PID.TID 0000.0001) Did not write pickup because writePickupAtEnd = FALSE
 cg2d: Sum(rhs),rhsMax =   5.85339715001570E+00  2.96284277328386E+00
(PID.TID 0000.0001) Did not write pickup because writePickupAtEnd = FALSE
 cg2d: Sum(rhs),rhsMax =   5.85339715001570E+00  2.96284277328386E+00
 Calling cg2d from S/R CG2D_SAD
 cg2d: Sum(rhs),rhsMax =   2.09610107049230E-13  3.55600724767241E+02
 cg2d: Sum(rhs),rhsMax =   5.15911495910990E+00  3.10708254024853E+00
 cg2d: Sum(rhs),rhsMax =   5.15911495910990E+00  3.10708254024853E+00
 Calling cg2d from S/R CG2D_SAD
 cg2d: Sum(rhs),rhsMax =   2.88657986402541E-14  4.69523232046752E+01
 cg2d: Sum(rhs),rhsMax =   4.45761744290658E+00  3.33597886225108E+00
 cg2d: Sum(rhs),rhsMax =   4.45761744290658E+00  3.33597886225108E+00
 Calling cg2d from S/R CG2D_SAD
 cg2d: Sum(rhs),rhsMax =   1.10134124042816E-12  1.66201906723980E+01
 cg2d: Sum(rhs),rhsMax =   3.74608577768825E+00  3.61303112154743E+00
 cg2d: Sum(rhs),rhsMax =   3.74608577768825E+00  3.61303112154743E+00
 Calling cg2d from S/R CG2D_SAD
 cg2d: Sum(rhs),rhsMax =  -1.38378197789280E-12  1.27807749728084E+01
(PID.TID 0000.0001) SOLVE_FOR_PRESSURE: putPmEinXvector =    F
 cg2d: Sum(rhs),rhsMax =   7.73551084252226E-01  3.29048622472774E+00
 cg2d: Sum(rhs),rhsMax =   1.52697357776816E+00  4.17022503399603E+00
 cg2d: Sum(rhs),rhsMax =   2.27601764070151E+00  4.04197234578102E+00
 cg2d: Sum(rhs),rhsMax =   3.02165606792587E+00  3.85995024094881E+00
 cg2d: Sum(rhs),rhsMax =   3.02165677723545E+00  3.85995008150527E+00
 cg2d: Sum(rhs),rhsMax =   3.02165677723545E+00  3.85995008150527E+00
 Calling cg2d from S/R CG2D_SAD
 cg2d: Sum(rhs),rhsMax =  -5.47117906535277E-13  7.60802676427409E+00
 cg2d: Sum(rhs),rhsMax =   2.27601731093161E+00  4.04197216976108E+00
 cg2d: Sum(rhs),rhsMax =   2.27601731093161E+00  4.04197216976108E+00
 Calling cg2d from S/R CG2D_SAD
 cg2d: Sum(rhs),rhsMax =   1.42108547152020E-12  7.08138195632595E+00
 cg2d: Sum(rhs),rhsMax =   1.52697356396389E+00  4.17022492069095E+00
 cg2d: Sum(rhs),rhsMax =   1.52697356396389E+00  4.17022492069095E+00
 Calling cg2d from S/R CG2D_SAD
 cg2d: Sum(rhs),rhsMax =  -5.54223333892878E-13  8.06165908741358E+00
(PID.TID 0000.0001) SOLVE_FOR_PRESSURE: putPmEinXvector =    F
 cg2d: Sum(rhs),rhsMax =   7.73551085820188E-01  3.29048620660793E+00
(PID.TID 0000.0001) SOLVE_FOR_PRESSURE: putPmEinXvector =    F
 cg2d: Sum(rhs),rhsMax =   7.73551085820188E-01  3.29048620660793E+00
 Calling cg2d from S/R CG2D_SAD
 cg2d: Sum(rhs),rhsMax =   5.68434188608080E-14  6.51439399553468E+00
(PID.TID 0000.0001) // =======================================================
(PID.TID 0000.0001) // Begin AD_MONITOR EXF statistics for iwhen =  3
(PID.TID 0000.0001) // =======================================================
(PID.TID 0000.0001) %MON ad_exf_tsnumber              =                     0
(PID.TID 0000.0001) %MON ad_exf_time_sec              =   0.0000000000000E+00
(PID.TID 0000.0001) %MON ad_exf_adfu_max              =   2.3277685655870E+05
(PID.TID 0000.0001) %MON ad_exf_adfu_min              =  -3.9100829993777E+05
(PID.TID 0000.0001) %MON ad_exf_adfu_mean             =  -5.7187423269101E+03
(PID.TID 0000.0001) %MON ad_exf_adfu_sd               =   2.0470746496235E+04
(PID.TID 0000.0001) %MON ad_exf_adfu_del2             =   5.5411767627105E+02
(PID.TID 0000.0001) %MON ad_exf_adfv_max              =   4.0595210784073E+05
(PID.TID 0000.0001) %MON ad_exf_adfv_min              =  -1.4380777099632E+05
(PID.TID 0000.0001) %MON ad_exf_adfv_mean             =   1.9874027669290E+03
(PID.TID 0000.0001) %MON ad_exf_adfv_sd               =   2.3363770011335E+04
(PID.TID 0000.0001) %MON ad_exf_adfv_del2             =   5.7388689712928E+02
(PID.TID 0000.0001) %MON ad_exf_adqnet_max            =   8.0328575412234E-01
(PID.TID 0000.0001) %MON ad_exf_adqnet_min            =  -9.9174903921242E-01
(PID.TID 0000.0001) %MON ad_exf_adqnet_mean           =   4.1794199030254E-03
(PID.TID 0000.0001) %MON ad_exf_adqnet_sd             =   2.5583928455149E-01
(PID.TID 0000.0001) %MON ad_exf_adqnet_del2           =   3.0807313765906E-03
(PID.TID 0000.0001) %MON ad_exf_adempmr_max           =   1.3410719088710E+07
(PID.TID 0000.0001) %MON ad_exf_adempmr_min           =  -9.1075826348210E+06
(PID.TID 0000.0001) %MON ad_exf_adempmr_mean          =  -1.2043463125168E+05
(PID.TID 0000.0001) %MON ad_exf_adempmr_sd            =   3.4619884816810E+06
(PID.TID 0000.0001) %MON ad_exf_adempmr_del2          =   3.7776402080631E+04
(PID.TID 0000.0001) // =======================================================
(PID.TID 0000.0001) // End AD_MONITOR EXF statistics for iwhen =  3
(PID.TID 0000.0001) // =======================================================
(PID.TID 0000.0001) // =======================================================
(PID.TID 0000.0001) // Begin AD_MONITOR EXF statistics for iwhen =  1
(PID.TID 0000.0001) // =======================================================
(PID.TID 0000.0001) %MON ad_exf_tsnumber              =                     0
(PID.TID 0000.0001) %MON ad_exf_time_sec              =   0.0000000000000E+00
(PID.TID 0000.0001) %MON ad_exf_adustress_max         =   1.5800651830245E+05
(PID.TID 0000.0001) %MON ad_exf_adustress_min         =  -2.9022622599908E+05
(PID.TID 0000.0001) %MON ad_exf_adustress_mean        =  -5.7853828940457E+03
(PID.TID 0000.0001) %MON ad_exf_adustress_sd          =   1.4570575231643E+04
(PID.TID 0000.0001) %MON ad_exf_adustress_del2        =   2.5901123414948E+02
(PID.TID 0000.0001) %MON ad_exf_advstress_max         =   2.1748643972025E+05
(PID.TID 0000.0001) %MON ad_exf_advstress_min         =  -1.2763662280525E+05
(PID.TID 0000.0001) %MON ad_exf_advstress_mean        =   1.3281930411167E+03
(PID.TID 0000.0001) %MON ad_exf_advstress_sd          =   1.6791124541892E+04
(PID.TID 0000.0001) %MON ad_exf_advstress_del2        =   2.6964262839722E+02
(PID.TID 0000.0001) %MON ad_exf_adhflux_max           =   0.0000000000000E+00
(PID.TID 0000.0001) %MON ad_exf_adhflux_min           =   0.0000000000000E+00
(PID.TID 0000.0001) %MON ad_exf_adhflux_mean          =   0.0000000000000E+00
(PID.TID 0000.0001) %MON ad_exf_adhflux_sd            =   0.0000000000000E+00
(PID.TID 0000.0001) %MON ad_exf_adhflux_del2          =   0.0000000000000E+00
(PID.TID 0000.0001) %MON ad_exf_adsflux_max           =   0.0000000000000E+00
(PID.TID 0000.0001) %MON ad_exf_adsflux_min           =   0.0000000000000E+00
(PID.TID 0000.0001) %MON ad_exf_adsflux_mean          =   0.0000000000000E+00
(PID.TID 0000.0001) %MON ad_exf_adsflux_sd            =   0.0000000000000E+00
(PID.TID 0000.0001) %MON ad_exf_adsflux_del2          =   0.0000000000000E+00
(PID.TID 0000.0001) %MON ad_exf_adwspeed_max          =   0.0000000000000E+00
(PID.TID 0000.0001) %MON ad_exf_adwspeed_min          =   0.0000000000000E+00
(PID.TID 0000.0001) %MON ad_exf_adwspeed_mean         =   0.0000000000000E+00
(PID.TID 0000.0001) %MON ad_exf_adwspeed_sd           =   0.0000000000000E+00
(PID.TID 0000.0001) %MON ad_exf_adwspeed_del2         =   0.0000000000000E+00
(PID.TID 0000.0001) // =======================================================
(PID.TID 0000.0001) // End AD_MONITOR EXF statistics for iwhen =  1
(PID.TID 0000.0001) // =======================================================
(PID.TID 0000.0001) // =======================================================
(PID.TID 0000.0001) // Begin AD_MONITOR EXF statistics for iwhen =  2
(PID.TID 0000.0001) // =======================================================
(PID.TID 0000.0001) %MON ad_exf_tsnumber              =                     0
(PID.TID 0000.0001) %MON ad_exf_time_sec              =   0.0000000000000E+00
(PID.TID 0000.0001) %MON ad_exf_aduwind_max           =   2.9827583081104E+03
(PID.TID 0000.0001) %MON ad_exf_aduwind_min           =  -7.4000804157786E+03
(PID.TID 0000.0001) %MON ad_exf_aduwind_mean          =  -9.6579312318315E+01
(PID.TID 0000.0001) %MON ad_exf_aduwind_sd            =   3.4675132968328E+02
(PID.TID 0000.0001) %MON ad_exf_aduwind_del2          =   7.1358836863081E+00
(PID.TID 0000.0001) %MON ad_exf_advwind_max           =   3.2677694522510E+03
(PID.TID 0000.0001) %MON ad_exf_advwind_min           =  -3.2132880097148E+03
(PID.TID 0000.0001) %MON ad_exf_advwind_mean          =  -2.0873346619871E+01
(PID.TID 0000.0001) %MON ad_exf_advwind_sd            =   3.0399810824863E+02
(PID.TID 0000.0001) %MON ad_exf_advwind_del2          =   6.0321411810513E+00
(PID.TID 0000.0001) %MON ad_exf_adatemp_max           =   6.1668143710001E+02
(PID.TID 0000.0001) %MON ad_exf_adatemp_min           =  -4.5894369595179E+02
(PID.TID 0000.0001) %MON ad_exf_adatemp_mean          =  -2.9799975494637E+00
(PID.TID 0000.0001) %MON ad_exf_adatemp_sd            =   3.6246784975896E+01
(PID.TID 0000.0001) %MON ad_exf_adatemp_del2          =   7.9396559803565E-01
(PID.TID 0000.0001) %MON ad_exf_adaqh_max             =   1.6299229102368E+05
(PID.TID 0000.0001) %MON ad_exf_adaqh_min             =  -2.7025276507915E+05
(PID.TID 0000.0001) %MON ad_exf_adaqh_mean            =  -3.1913685439230E+03
(PID.TID 0000.0001) %MON ad_exf_adaqh_sd              =   4.3224037191851E+04
(PID.TID 0000.0001) %MON ad_exf_adaqh_del2            =   6.0925473995170E+02
(PID.TID 0000.0001) %MON ad_exf_adlwflux_max          =   0.0000000000000E+00
(PID.TID 0000.0001) %MON ad_exf_adlwflux_min          =   0.0000000000000E+00
(PID.TID 0000.0001) %MON ad_exf_adlwflux_mean         =   0.0000000000000E+00
(PID.TID 0000.0001) %MON ad_exf_adlwflux_sd           =   0.0000000000000E+00
(PID.TID 0000.0001) %MON ad_exf_adlwflux_del2         =   0.0000000000000E+00
(PID.TID 0000.0001) %MON ad_exf_adprecip_max          =   9.1088969708411E+09
(PID.TID 0000.0001) %MON ad_exf_adprecip_min          =  -1.3409272867034E+10
(PID.TID 0000.0001) %MON ad_exf_adprecip_mean         =   1.2167339124446E+08
(PID.TID 0000.0001) %MON ad_exf_adprecip_sd           =   3.4620275386461E+09
(PID.TID 0000.0001) %MON ad_exf_adprecip_del2         =   3.7777517959656E+07
(PID.TID 0000.0001) %MON ad_exf_adswflux_max          =   0.0000000000000E+00
(PID.TID 0000.0001) %MON ad_exf_adswflux_min          =   0.0000000000000E+00
(PID.TID 0000.0001) %MON ad_exf_adswflux_mean         =   0.0000000000000E+00
(PID.TID 0000.0001) %MON ad_exf_adswflux_sd           =   0.0000000000000E+00
(PID.TID 0000.0001) %MON ad_exf_adswflux_del2         =   0.0000000000000E+00
(PID.TID 0000.0001) %MON ad_exf_adswdown_max          =   9.7411690964679E-01
(PID.TID 0000.0001) %MON ad_exf_adswdown_min          =  -6.8968926892201E-01
(PID.TID 0000.0001) %MON ad_exf_adswdown_mean         =  -2.0329541216074E-03
(PID.TID 0000.0001) %MON ad_exf_adswdown_sd           =   2.3732718352278E-01
(PID.TID 0000.0001) %MON ad_exf_adswdown_del2         =   2.9126784761082E-03
(PID.TID 0000.0001) %MON ad_exf_adlwdown_max          =   1.0966528717787E+00
(PID.TID 0000.0001) %MON ad_exf_adlwdown_min          =  -8.0328575412234E-01
(PID.TID 0000.0001) %MON ad_exf_adlwdown_mean         =  -2.4372696250982E-03
(PID.TID 0000.0001) %MON ad_exf_adlwdown_sd           =   2.5773394210227E-01
(PID.TID 0000.0001) %MON ad_exf_adlwdown_del2         =   3.1756965943707E-03
(PID.TID 0000.0001) %MON ad_exf_adrunoff_max          =   4.6883447524120E+10
(PID.TID 0000.0001) %MON ad_exf_adrunoff_min          =  -7.3250411059126E+10
(PID.TID 0000.0001) %MON ad_exf_adrunoff_mean         =   7.5820126701685E+08
(PID.TID 0000.0001) %MON ad_exf_adrunoff_sd           =   1.9679734008511E+10
(PID.TID 0000.0001) %MON ad_exf_adrunoff_del2         =   2.7792203118789E+08
(PID.TID 0000.0001) // =======================================================
(PID.TID 0000.0001) // End AD_MONITOR EXF statistics for iwhen =  2
(PID.TID 0000.0001) // =======================================================
(PID.TID 0000.0001) Start initial hydrostatic pressure computation
(PID.TID 0000.0001) Pressure is predetermined for buoyancyRelation OCEANIC
(PID.TID 0000.0001) 
(PID.TID 0000.0001) // =======================================================
(PID.TID 0000.0001) // Begin AD_MONITOR dynamic field statistics
(PID.TID 0000.0001) // =======================================================
(PID.TID 0000.0001) %MON ad_time_tsnumber             =                     0
(PID.TID 0000.0001) %MON ad_time_secondsf             =   0.0000000000000E+00
(PID.TID 0000.0001) %MON ad_dynstat_adeta_max         =   0.0000000000000E+00
(PID.TID 0000.0001) %MON ad_dynstat_adeta_min         =   0.0000000000000E+00
(PID.TID 0000.0001) %MON ad_dynstat_adeta_mean        =   0.0000000000000E+00
(PID.TID 0000.0001) %MON ad_dynstat_adeta_sd          =   0.0000000000000E+00
(PID.TID 0000.0001) %MON ad_dynstat_adeta_del2        =   0.0000000000000E+00
(PID.TID 0000.0001) %MON ad_dynstat_aduvel_max        =   1.6756924630120E+07
(PID.TID 0000.0001) %MON ad_dynstat_aduvel_min        =  -5.7668277262099E+06
(PID.TID 0000.0001) %MON ad_dynstat_aduvel_mean       =  -2.8005847452886E+05
(PID.TID 0000.0001) %MON ad_dynstat_aduvel_sd         =   4.7800816727653E+05
(PID.TID 0000.0001) %MON ad_dynstat_aduvel_del2       =   4.5335211908879E+02
(PID.TID 0000.0001) %MON ad_dynstat_advvel_max        =   7.4315209528525E+06
(PID.TID 0000.0001) %MON ad_dynstat_advvel_min        =  -3.7564265093403E+07
(PID.TID 0000.0001) %MON ad_dynstat_advvel_mean       =  -1.0938015588960E+04
(PID.TID 0000.0001) %MON ad_dynstat_advvel_sd         =   6.9190651223094E+05
(PID.TID 0000.0001) %MON ad_dynstat_advvel_del2       =   4.8773041513366E+02
(PID.TID 0000.0001) %MON ad_dynstat_adwvel_max        =   0.0000000000000E+00
(PID.TID 0000.0001) %MON ad_dynstat_adwvel_min        =   0.0000000000000E+00
(PID.TID 0000.0001) %MON ad_dynstat_adwvel_mean       =   0.0000000000000E+00
(PID.TID 0000.0001) %MON ad_dynstat_adwvel_sd         =   0.0000000000000E+00
(PID.TID 0000.0001) %MON ad_dynstat_adwvel_del2       =   0.0000000000000E+00
(PID.TID 0000.0001) %MON ad_dynstat_adtheta_max       =   2.4720424457309E+06
(PID.TID 0000.0001) %MON ad_dynstat_adtheta_min       =  -1.9965580376318E+06
(PID.TID 0000.0001) %MON ad_dynstat_adtheta_mean      =  -4.7397671755401E+02
(PID.TID 0000.0001) %MON ad_dynstat_adtheta_sd        =   4.3169386362884E+04
(PID.TID 0000.0001) %MON ad_dynstat_adtheta_del2      =   1.3804414873322E+02
(PID.TID 0000.0001) %MON ad_dynstat_adsalt_max        =   7.0174175692807E+06
(PID.TID 0000.0001) %MON ad_dynstat_adsalt_min        =  -8.6856861341422E+06
(PID.TID 0000.0001) %MON ad_dynstat_adsalt_mean       =   2.6298374007921E+03
(PID.TID 0000.0001) %MON ad_dynstat_adsalt_sd         =   1.8587589770718E+05
(PID.TID 0000.0001) %MON ad_dynstat_adsalt_del2       =   5.8911181809237E+02
(PID.TID 0000.0001) %MON ad_forcing_adqnet_max        =   0.0000000000000E+00
(PID.TID 0000.0001) %MON ad_forcing_adqnet_min        =   0.0000000000000E+00
(PID.TID 0000.0001) %MON ad_forcing_adqnet_mean       =   0.0000000000000E+00
(PID.TID 0000.0001) %MON ad_forcing_adqnet_sd         =   0.0000000000000E+00
(PID.TID 0000.0001) %MON ad_forcing_adqnet_del2       =   0.0000000000000E+00
(PID.TID 0000.0001) %MON ad_forcing_adqsw_max         =   0.0000000000000E+00
(PID.TID 0000.0001) %MON ad_forcing_adqsw_min         =   0.0000000000000E+00
(PID.TID 0000.0001) %MON ad_forcing_adqsw_mean        =   0.0000000000000E+00
(PID.TID 0000.0001) %MON ad_forcing_adqsw_sd          =   0.0000000000000E+00
(PID.TID 0000.0001) %MON ad_forcing_adqsw_del2        =   0.0000000000000E+00
(PID.TID 0000.0001) %MON ad_forcing_adempmr_max       =   0.0000000000000E+00
(PID.TID 0000.0001) %MON ad_forcing_adempmr_min       =   0.0000000000000E+00
(PID.TID 0000.0001) %MON ad_forcing_adempmr_mean      =   0.0000000000000E+00
(PID.TID 0000.0001) %MON ad_forcing_adempmr_sd        =   0.0000000000000E+00
(PID.TID 0000.0001) %MON ad_forcing_adempmr_del2      =   0.0000000000000E+00
(PID.TID 0000.0001) %MON ad_forcing_adfu_max          =   0.0000000000000E+00
(PID.TID 0000.0001) %MON ad_forcing_adfu_min          =   0.0000000000000E+00
(PID.TID 0000.0001) %MON ad_forcing_adfu_mean         =   0.0000000000000E+00
(PID.TID 0000.0001) %MON ad_forcing_adfu_sd           =   0.0000000000000E+00
(PID.TID 0000.0001) %MON ad_forcing_adfu_del2         =   0.0000000000000E+00
(PID.TID 0000.0001) %MON ad_forcing_adfv_max          =   0.0000000000000E+00
(PID.TID 0000.0001) %MON ad_forcing_adfv_min          =   0.0000000000000E+00
(PID.TID 0000.0001) %MON ad_forcing_adfv_mean         =   0.0000000000000E+00
(PID.TID 0000.0001) %MON ad_forcing_adfv_sd           =   0.0000000000000E+00
(PID.TID 0000.0001) %MON ad_forcing_adfv_del2         =   0.0000000000000E+00
(PID.TID 0000.0001) // =======================================================
(PID.TID 0000.0001) // End AD_MONITOR dynamic field statistics
(PID.TID 0000.0001) // =======================================================
(PID.TID 0000.0001) // =======================================================
(PID.TID 0000.0001) // Begin AD_MONITOR SEAICE statistics
(PID.TID 0000.0001) // =======================================================
(PID.TID 0000.0001) %MON ad_seaice_tsnumber           =                     0
(PID.TID 0000.0001) %MON ad_seaice_time_sec           =   0.0000000000000E+00
(PID.TID 0000.0001) %MON ad_seaice_aduice_max         =   7.4285527361079E+02
(PID.TID 0000.0001) %MON ad_seaice_aduice_min         =  -5.7598735327407E+03
(PID.TID 0000.0001) %MON ad_seaice_aduice_mean        =  -8.0542181667202E+00
(PID.TID 0000.0001) %MON ad_seaice_aduice_sd          =   1.7650264022607E+02
(PID.TID 0000.0001) %MON ad_seaice_aduice_del2        =   1.4664537314837E+00
(PID.TID 0000.0001) %MON ad_seaice_advice_max         =   9.4409367787761E+02
(PID.TID 0000.0001) %MON ad_seaice_advice_min         =  -7.6140878444887E+03
(PID.TID 0000.0001) %MON ad_seaice_advice_mean        =  -3.3785170468759E+00
(PID.TID 0000.0001) %MON ad_seaice_advice_sd          =   1.5928434862531E+02
(PID.TID 0000.0001) %MON ad_seaice_advice_del2        =   4.2615705764836E+00
(PID.TID 0000.0001) %MON ad_seaice_adarea_max         =   1.1657183205097E+04
(PID.TID 0000.0001) %MON ad_seaice_adarea_min         =  -1.6655108101563E+04
(PID.TID 0000.0001) %MON ad_seaice_adarea_mean        =   8.4571455076354E+01
(PID.TID 0000.0001) %MON ad_seaice_adarea_sd          =   9.4467119990896E+02
(PID.TID 0000.0001) %MON ad_seaice_adarea_del2        =   1.7166932445894E+01
(PID.TID 0000.0001) %MON ad_seaice_adheff_max         =   2.3976191464431E+06
(PID.TID 0000.0001) %MON ad_seaice_adheff_min         =  -3.4883571927882E+06
(PID.TID 0000.0001) %MON ad_seaice_adheff_mean        =   3.1645111416029E+04
(PID.TID 0000.0001) %MON ad_seaice_adheff_sd          =   9.0404255284730E+05
(PID.TID 0000.0001) %MON ad_seaice_adheff_del2        =   9.8952717571893E+03
(PID.TID 0000.0001) %MON ad_seaice_adhsnow_max        =   8.6732803660368E+05
(PID.TID 0000.0001) %MON ad_seaice_adhsnow_min        =  -1.2622131154145E+06
(PID.TID 0000.0001) %MON ad_seaice_adhsnow_mean       =   1.1443640871402E+04
(PID.TID 0000.0001) %MON ad_seaice_adhsnow_sd         =   3.2693931413577E+05
(PID.TID 0000.0001) %MON ad_seaice_adhsnow_del2       =   3.5782116256829E+03
(PID.TID 0000.0001) // =======================================================
(PID.TID 0000.0001) // End AD_MONITOR SEAICE statistics
(PID.TID 0000.0001) // =======================================================
(PID.TID 0000.0001) Start initial hydrostatic pressure computation
(PID.TID 0000.0001) Pressure is predetermined for buoyancyRelation OCEANIC
(PID.TID 0000.0001) 
 ph-pack: packing ecco_cost
 ph-pack: packing ecco_ctrl
(PID.TID 0000.0001) // =======================================================
(PID.TID 0000.0001) // Gradient-check starts (grdchk_main)
(PID.TID 0000.0001) // =======================================================
(PID.TID 0000.0001) grdchk reference fc: fcref       =  1.39129888418199E+08
grad-res -------------------------------
 grad-res  proc    #    i    j    k   bi   bj iobc       fc ref            fc + eps           fc - eps
 grad-res  proc    #    i    j    k   bi   bj iobc      adj grad            fd grad          1 - fd/adj
(PID.TID 0000.0001) ====== Starts gradient-check number   1 (=ichknum) =======
 ph-test icomp, ncvarcomp, ichknum            1         594           1
 ph-grd _loc: bi, bj, icomptest, ichknum            1           1           0           1
 ph-grd -->hit<--            1           1           1           1
(PID.TID 0000.0001) grdchk pos: i,j,k=    1    1    1 ; bi,bj=   1   1 ; iobc=  1 ; rec=   1
(PID.TID 0000.0001) Start initial hydrostatic pressure computation
(PID.TID 0000.0001) Pressure is predetermined for buoyancyRelation OCEANIC
(PID.TID 0000.0001) 
(PID.TID 0000.0001) // =======================================================
(PID.TID 0000.0001) // Model current state
(PID.TID 0000.0001) // =======================================================
(PID.TID 0000.0001) 
(PID.TID 0000.0001) SOLVE_FOR_PRESSURE: putPmEinXvector =    F
 cg2d: Sum(rhs),rhsMax =   7.73551084252098E-01  3.29048622472429E+00
 cg2d: Sum(rhs),rhsMax =   1.52697358431249E+00  4.17022503398205E+00
 cg2d: Sum(rhs),rhsMax =   2.27601765314465E+00  4.04197234571436E+00
 cg2d: Sum(rhs),rhsMax =   3.02165608578957E+00  3.85995024071302E+00
 cg2d: Sum(rhs),rhsMax =   3.74608562165758E+00  3.61302462901035E+00
 cg2d: Sum(rhs),rhsMax =   4.45761419363021E+00  3.33597383712085E+00
 cg2d: Sum(rhs),rhsMax =   5.15911015353674E+00  3.10707882794718E+00
 cg2d: Sum(rhs),rhsMax =   5.85339074759958E+00  2.96283946716953E+00
(PID.TID 0000.0001) Did not write pickup because writePickupAtEnd = FALSE
(PID.TID 0000.0001) 
(PID.TID 0000.0001) == cost_profiles: begin ==
(PID.TID 0000.0001) == cost_profiles: end   ==
(PID.TID 0000.0001) 
(PID.TID 0000.0001) boxmean/horflux :  1  0.00000000000000E+00
(PID.TID 0000.0001) boxmean/horflux :  2  0.00000000000000E+00
(PID.TID 0000.0001) boxmean/horflux :  3  0.00000000000000E+00
(PID.TID 0000.0001) boxmean/horflux :  4  0.00000000000000E+00
(PID.TID 0000.0001) boxmean/horflux :  5  8.91736899254056E+00
(PID.TID 0000.0001) boxmean/horflux :  6  0.00000000000000E+00
(PID.TID 0000.0001) boxmean/horflux :  7  0.00000000000000E+00
(PID.TID 0000.0001) boxmean/horflux :  8  0.00000000000000E+00
(PID.TID 0000.0001) boxmean/horflux :  9  0.00000000000000E+00
(PID.TID 0000.0001) boxmean/horflux fc : 8.91736899254056E+00
(PID.TID 0000.0001) boxmean/horflux :  1  0.00000000000000E+00
(PID.TID 0000.0001) boxmean/horflux :  2  6.61126619742839E+06
(PID.TID 0000.0001) boxmean/horflux :  3 -2.69268961979167E+06
(PID.TID 0000.0001) boxmean/horflux :  4 -1.68597068195530E+07
(PID.TID 0000.0001) boxmean/horflux :  5 -2.66222846952582E+07
(PID.TID 0000.0001) boxmean/horflux :  6 -2.57707153849826E+07
(PID.TID 0000.0001) boxmean/horflux :  7 -1.27748584802517E+07
(PID.TID 0000.0001) boxmean/horflux :  8  9.16186029644097E+06
(PID.TID 0000.0001) boxmean/horflux :  9  3.41604628715278E+07
(PID.TID 0000.0001) boxmean/horflux fc :-3.47866656344401E+07
(PID.TID 0000.0001) Inside cost_gencost_moc ...
(PID.TID 0000.0001) Cost    3: m_trVol_step
(PID.TID 0000.0001) **Warning: temporal msk file: north10_maskT not found, using 1/nrecloc
(PID.TID 0000.0001) moc cost m_trVol_step  1  0.00000000000000E+00kmax:  1
(PID.TID 0000.0001) **Warning: temporal msk file: north10_maskT not found, using 1/nrecloc
(PID.TID 0000.0001) moc cost m_trVol_step  2 -3.35248229166667E+04kmax: 50
(PID.TID 0000.0001) **Warning: temporal msk file: north10_maskT not found, using 1/nrecloc
(PID.TID 0000.0001) moc cost m_trVol_step  3  2.69268963169819E+06kmax:  1
(PID.TID 0000.0001) **Warning: temporal msk file: north10_maskT not found, using 1/nrecloc
(PID.TID 0000.0001) moc cost m_trVol_step  4  1.68597068320804E+07kmax:  1
(PID.TID 0000.0001) **Warning: temporal msk file: north10_maskT not found, using 1/nrecloc
(PID.TID 0000.0001) moc cost m_trVol_step  5  2.66222846174092E+07kmax:  1
(PID.TID 0000.0001) **Warning: temporal msk file: north10_maskT not found, using 1/nrecloc
(PID.TID 0000.0001) moc cost m_trVol_step  6  2.57707153230182E+07kmax:  1
(PID.TID 0000.0001) **Warning: temporal msk file: north10_maskT not found, using 1/nrecloc
(PID.TID 0000.0001) moc cost m_trVol_step  7  1.27748585656537E+07kmax:  1
(PID.TID 0000.0001) **Warning: temporal msk file: north10_maskT not found, using 1/nrecloc
(PID.TID 0000.0001) moc cost m_trVol_step  8  2.77664357638889E+04kmax: 50
(PID.TID 0000.0001) **Warning: temporal msk file: north10_maskT not found, using 1/nrecloc
(PID.TID 0000.0001) moc cost m_trVol_step  9  2.83677986111111E+04kmax: 50
(PID.TID 0000.0001) moc fc:  8.47428643813180E+07
(PID.TID 0000.0001)  --> f_gencost = 0.891736899254056D+01 1
(PID.TID 0000.0001)  --> f_gencost =-0.347866656344401D+08 2
(PID.TID 0000.0001)  --> f_gencost = 0.847428643813180D+08 3
(PID.TID 0000.0001)  --> f_gentim2d = 0.999999955296517D-04 1
(PID.TID 0000.0001)  --> f_gentim2d = 0.000000000000000D+00 2
(PID.TID 0000.0001)  --> f_gentim2d = 0.000000000000000D+00 3
(PID.TID 0000.0001)  --> f_gentim2d = 0.000000000000000D+00 4
(PID.TID 0000.0001)  --> f_gentim2d = 0.000000000000000D+00 5
(PID.TID 0000.0001)  --> f_genarr3d = 0.000000000000000D+00 1
(PID.TID 0000.0001)  --> f_genarr3d = 0.000000000000000D+00 2
(PID.TID 0000.0001)  --> f_genarr3d = 0.000000000000000D+00 3
(PID.TID 0000.0001)  --> fc               = 0.139129888672283D+09
(PID.TID 0000.0001)   early fc =  0.000000000000000D+00
(PID.TID 0000.0001)   local fc =  0.792157166555562D+08
(PID.TID 0000.0001)  global fc =  0.139129888672283D+09
(PID.TID 0000.0001) grdchk perturb(+)fc: fcpertplus  =  1.39129888672283E+08
(PID.TID 0000.0001) Start initial hydrostatic pressure computation
(PID.TID 0000.0001) Pressure is predetermined for buoyancyRelation OCEANIC
(PID.TID 0000.0001) 
(PID.TID 0000.0001) // =======================================================
(PID.TID 0000.0001) // Model current state
(PID.TID 0000.0001) // =======================================================
(PID.TID 0000.0001) 
(PID.TID 0000.0001) SOLVE_FOR_PRESSURE: putPmEinXvector =    F
 cg2d: Sum(rhs),rhsMax =   7.73551084252190E-01  3.29048622473124E+00
 cg2d: Sum(rhs),rhsMax =   1.52697357122355E+00  4.17022503400893E+00
 cg2d: Sum(rhs),rhsMax =   2.27601762825762E+00  4.04197234584808E+00
 cg2d: Sum(rhs),rhsMax =   3.02165605006121E+00  3.85995024118329E+00
 cg2d: Sum(rhs),rhsMax =   3.74608557599240E+00  3.61302463015362E+00
 cg2d: Sum(rhs),rhsMax =   4.45761413930140E+00  3.33597383919068E+00
 cg2d: Sum(rhs),rhsMax =   5.15911009149499E+00  3.10707883084526E+00
 cg2d: Sum(rhs),rhsMax =   5.85339067913355E+00  2.96283947034793E+00
(PID.TID 0000.0001) Did not write pickup because writePickupAtEnd = FALSE
(PID.TID 0000.0001) 
(PID.TID 0000.0001) == cost_profiles: begin ==
(PID.TID 0000.0001) == cost_profiles: end   ==
(PID.TID 0000.0001) 
(PID.TID 0000.0001) boxmean/horflux :  1  0.00000000000000E+00
(PID.TID 0000.0001) boxmean/horflux :  2  0.00000000000000E+00
(PID.TID 0000.0001) boxmean/horflux :  3  0.00000000000000E+00
(PID.TID 0000.0001) boxmean/horflux :  4  0.00000000000000E+00
(PID.TID 0000.0001) boxmean/horflux :  5  8.91736898741829E+00
(PID.TID 0000.0001) boxmean/horflux :  6  0.00000000000000E+00
(PID.TID 0000.0001) boxmean/horflux :  7  0.00000000000000E+00
(PID.TID 0000.0001) boxmean/horflux :  8  0.00000000000000E+00
(PID.TID 0000.0001) boxmean/horflux :  9  0.00000000000000E+00
(PID.TID 0000.0001) boxmean/horflux fc : 8.91736898741829E+00
(PID.TID 0000.0001) boxmean/horflux :  1  0.00000000000000E+00
(PID.TID 0000.0001) boxmean/horflux :  2  6.61126619742839E+06
(PID.TID 0000.0001) boxmean/horflux :  3 -2.69268961979167E+06
(PID.TID 0000.0001) boxmean/horflux :  4 -1.68597068195530E+07
(PID.TID 0000.0001) boxmean/horflux :  5 -2.66222847234701E+07
(PID.TID 0000.0001) boxmean/horflux :  6 -2.57707154960937E+07
(PID.TID 0000.0001) boxmean/horflux :  7 -1.27748585635851E+07
(PID.TID 0000.0001) boxmean/horflux :  8  9.16186015755208E+06
(PID.TID 0000.0001) boxmean/horflux :  9  3.41604626145833E+07
(PID.TID 0000.0001) boxmean/horflux fc :-3.47866662529297E+07
(PID.TID 0000.0001) Inside cost_gencost_moc ...
(PID.TID 0000.0001) Cost    3: m_trVol_step
(PID.TID 0000.0001) **Warning: temporal msk file: north10_maskT not found, using 1/nrecloc
(PID.TID 0000.0001) moc cost m_trVol_step  1  0.00000000000000E+00kmax:  1
(PID.TID 0000.0001) **Warning: temporal msk file: north10_maskT not found, using 1/nrecloc
(PID.TID 0000.0001) moc cost m_trVol_step  2 -3.35248229166667E+04kmax: 50
(PID.TID 0000.0001) **Warning: temporal msk file: north10_maskT not found, using 1/nrecloc
(PID.TID 0000.0001) moc cost m_trVol_step  3  2.69268963234923E+06kmax:  1
(PID.TID 0000.0001) **Warning: temporal msk file: north10_maskT not found, using 1/nrecloc
(PID.TID 0000.0001) moc cost m_trVol_step  4  1.68597068405372E+07kmax:  1
(PID.TID 0000.0001) **Warning: temporal msk file: north10_maskT not found, using 1/nrecloc
(PID.TID 0000.0001) moc cost m_trVol_step  5  2.66222846456032E+07kmax:  1
(PID.TID 0000.0001) **Warning: temporal msk file: north10_maskT not found, using 1/nrecloc
(PID.TID 0000.0001) moc cost m_trVol_step  6  2.57707153881037E+07kmax:  1
(PID.TID 0000.0001) **Warning: temporal msk file: north10_maskT not found, using 1/nrecloc
(PID.TID 0000.0001) moc cost m_trVol_step  7  1.27748586785314E+07kmax:  1
(PID.TID 0000.0001) **Warning: temporal msk file: north10_maskT not found, using 1/nrecloc
(PID.TID 0000.0001) moc cost m_trVol_step  8  2.77664357638889E+04kmax: 50
(PID.TID 0000.0001) **Warning: temporal msk file: north10_maskT not found, using 1/nrecloc
(PID.TID 0000.0001) moc cost m_trVol_step  9  2.83677986111111E+04kmax: 50
(PID.TID 0000.0001) moc fc:  8.47428645965831E+07
(PID.TID 0000.0001)  --> f_gencost = 0.891736898741829D+01 1
(PID.TID 0000.0001)  --> f_gencost =-0.347866662529297D+08 2
(PID.TID 0000.0001)  --> f_gencost = 0.847428645965831D+08 3
(PID.TID 0000.0001)  --> f_gentim2d = 0.999999955296517D-04 1
(PID.TID 0000.0001)  --> f_gentim2d = 0.000000000000000D+00 2
(PID.TID 0000.0001)  --> f_gentim2d = 0.000000000000000D+00 3
(PID.TID 0000.0001)  --> f_gentim2d = 0.000000000000000D+00 4
(PID.TID 0000.0001)  --> f_gentim2d = 0.000000000000000D+00 5
(PID.TID 0000.0001)  --> f_genarr3d = 0.000000000000000D+00 1
(PID.TID 0000.0001)  --> f_genarr3d = 0.000000000000000D+00 2
(PID.TID 0000.0001)  --> f_genarr3d = 0.000000000000000D+00 3
(PID.TID 0000.0001)  --> fc               = 0.139129888217836D+09
(PID.TID 0000.0001)   early fc =  0.000000000000000D+00
(PID.TID 0000.0001)   local fc =  0.792157162595888D+08
(PID.TID 0000.0001)  global fc =  0.139129888217836D+09
(PID.TID 0000.0001) grdchk perturb(-)fc: fcpertminus =  1.39129888217836E+08
grad-res -------------------------------
 grad-res     0    1    1    1    1    1    1    1   1.39129888418E+08  1.39129888672E+08  1.39129888218E+08
 grad-res     0    1    1    1    0    1    1    1   3.40075531006E+01  2.27223619819E+01  3.31843666768E-01
(PID.TID 0000.0001)  ADM  ref_cost_function      =  1.39129888418199E+08
(PID.TID 0000.0001)  ADM  adjoint_gradient       =  3.40075531005859E+01
(PID.TID 0000.0001)  ADM  finite-diff_grad       =  2.27223619818687E+01
(PID.TID 0000.0001) ====== End of gradient-check number   1 (ierr=  0) =======
(PID.TID 0000.0001) ====== Starts gradient-check number   2 (=ichknum) =======
 ph-test icomp, ncvarcomp, ichknum            2         594           2
 ph-grd _loc: bi, bj, icomptest, ichknum            1           1           1           2
 ph-grd -->hit<--            2           1           1           1
(PID.TID 0000.0001) grdchk pos: i,j,k=    2    1    1 ; bi,bj=   1   1 ; iobc=  1 ; rec=   1
(PID.TID 0000.0001) Start initial hydrostatic pressure computation
(PID.TID 0000.0001) Pressure is predetermined for buoyancyRelation OCEANIC
(PID.TID 0000.0001) 
(PID.TID 0000.0001) // =======================================================
(PID.TID 0000.0001) // Model current state
(PID.TID 0000.0001) // =======================================================
(PID.TID 0000.0001) 
(PID.TID 0000.0001) SOLVE_FOR_PRESSURE: putPmEinXvector =    F
 cg2d: Sum(rhs),rhsMax =   7.73551084252176E-01  3.29048622472274E+00
 cg2d: Sum(rhs),rhsMax =   1.52697358722564E+00  4.17022503397201E+00
 cg2d: Sum(rhs),rhsMax =   2.27601765888514E+00  4.04197234565430E+00
 cg2d: Sum(rhs),rhsMax =   3.02165609423517E+00  3.85995024050694E+00
 cg2d: Sum(rhs),rhsMax =   3.74608563265483E+00  3.61302462852283E+00
 cg2d: Sum(rhs),rhsMax =   4.45761420686100E+00  3.33597383627754E+00
 cg2d: Sum(rhs),rhsMax =   5.15911016859178E+00  3.10707882679623E+00
 cg2d: Sum(rhs),rhsMax =   5.85339076415704E+00  2.96283946589900E+00
(PID.TID 0000.0001) Did not write pickup because writePickupAtEnd = FALSE
(PID.TID 0000.0001) 
(PID.TID 0000.0001) == cost_profiles: begin ==
(PID.TID 0000.0001) == cost_profiles: end   ==
(PID.TID 0000.0001) 
(PID.TID 0000.0001) boxmean/horflux :  1  0.00000000000000E+00
(PID.TID 0000.0001) boxmean/horflux :  2  0.00000000000000E+00
(PID.TID 0000.0001) boxmean/horflux :  3  0.00000000000000E+00
(PID.TID 0000.0001) boxmean/horflux :  4  0.00000000000000E+00
(PID.TID 0000.0001) boxmean/horflux :  5  8.91736899254056E+00
(PID.TID 0000.0001) boxmean/horflux :  6  0.00000000000000E+00
(PID.TID 0000.0001) boxmean/horflux :  7  0.00000000000000E+00
(PID.TID 0000.0001) boxmean/horflux :  8  0.00000000000000E+00
(PID.TID 0000.0001) boxmean/horflux :  9  0.00000000000000E+00
(PID.TID 0000.0001) boxmean/horflux fc : 8.91736899254056E+00
(PID.TID 0000.0001) boxmean/horflux :  1  0.00000000000000E+00
(PID.TID 0000.0001) boxmean/horflux :  2  6.61126619742839E+06
(PID.TID 0000.0001) boxmean/horflux :  3 -2.69268961979167E+06
(PID.TID 0000.0001) boxmean/horflux :  4 -1.68597068195530E+07
(PID.TID 0000.0001) boxmean/horflux :  5 -2.66222846952582E+07
(PID.TID 0000.0001) boxmean/horflux :  6 -2.57707153849826E+07
(PID.TID 0000.0001) boxmean/horflux :  7 -1.27748584802517E+07
(PID.TID 0000.0001) boxmean/horflux :  8  9.16186029730902E+06
(PID.TID 0000.0001) boxmean/horflux :  9  3.41604628715278E+07
(PID.TID 0000.0001) boxmean/horflux fc :-3.47866656335720E+07
(PID.TID 0000.0001) Inside cost_gencost_moc ...
(PID.TID 0000.0001) Cost    3: m_trVol_step
(PID.TID 0000.0001) **Warning: temporal msk file: north10_maskT not found, using 1/nrecloc
(PID.TID 0000.0001) moc cost m_trVol_step  1  0.00000000000000E+00kmax:  1
(PID.TID 0000.0001) **Warning: temporal msk file: north10_maskT not found, using 1/nrecloc
(PID.TID 0000.0001) moc cost m_trVol_step  2 -3.35248229166667E+04kmax: 50
(PID.TID 0000.0001) **Warning: temporal msk file: north10_maskT not found, using 1/nrecloc
(PID.TID 0000.0001) moc cost m_trVol_step  3  2.69268962996208E+06kmax:  1
(PID.TID 0000.0001) **Warning: temporal msk file: north10_maskT not found, using 1/nrecloc
(PID.TID 0000.0001) moc cost m_trVol_step  4  1.68597068316464E+07kmax:  1
(PID.TID 0000.0001) **Warning: temporal msk file: north10_maskT not found, using 1/nrecloc
(PID.TID 0000.0001) moc cost m_trVol_step  5  2.66222846168014E+07kmax:  1
(PID.TID 0000.0001) **Warning: temporal msk file: north10_maskT not found, using 1/nrecloc
(PID.TID 0000.0001) moc cost m_trVol_step  6  2.57707153161757E+07kmax:  1
(PID.TID 0000.0001) **Warning: temporal msk file: north10_maskT not found, using 1/nrecloc
(PID.TID 0000.0001) moc cost m_trVol_step  7  1.27748585601894E+07kmax:  1
(PID.TID 0000.0001) **Warning: temporal msk file: north10_maskT not found, using 1/nrecloc
(PID.TID 0000.0001) moc cost m_trVol_step  8  2.77664357638889E+04kmax: 50
(PID.TID 0000.0001) **Warning: temporal msk file: north10_maskT not found, using 1/nrecloc
(PID.TID 0000.0001) moc cost m_trVol_step  9  2.83677986111111E+04kmax: 50
(PID.TID 0000.0001) moc fc:  8.47428643662332E+07
(PID.TID 0000.0001)  --> f_gencost = 0.891736899254056D+01 1
(PID.TID 0000.0001)  --> f_gencost =-0.347866656335721D+08 2
(PID.TID 0000.0001)  --> f_gencost = 0.847428643662332D+08 3
(PID.TID 0000.0001)  --> f_gentim2d = 0.999999955296517D-04 1
(PID.TID 0000.0001)  --> f_gentim2d = 0.000000000000000D+00 2
(PID.TID 0000.0001)  --> f_gentim2d = 0.000000000000000D+00 3
(PID.TID 0000.0001)  --> f_gentim2d = 0.000000000000000D+00 4
(PID.TID 0000.0001)  --> f_gentim2d = 0.000000000000000D+00 5
(PID.TID 0000.0001)  --> f_genarr3d = 0.000000000000000D+00 1
(PID.TID 0000.0001)  --> f_genarr3d = 0.000000000000000D+00 2
(PID.TID 0000.0001)  --> f_genarr3d = 0.000000000000000D+00 3
(PID.TID 0000.0001)  --> fc               = 0.139129888658067D+09
(PID.TID 0000.0001)   early fc =  0.000000000000000D+00
(PID.TID 0000.0001)   local fc =  0.792157166459961D+08
(PID.TID 0000.0001)  global fc =  0.139129888658067D+09
(PID.TID 0000.0001) grdchk perturb(+)fc: fcpertplus  =  1.39129888658067E+08
(PID.TID 0000.0001) Start initial hydrostatic pressure computation
(PID.TID 0000.0001) Pressure is predetermined for buoyancyRelation OCEANIC
(PID.TID 0000.0001) 
(PID.TID 0000.0001) // =======================================================
(PID.TID 0000.0001) // Model current state
(PID.TID 0000.0001) // =======================================================
(PID.TID 0000.0001) 
(PID.TID 0000.0001) SOLVE_FOR_PRESSURE: putPmEinXvector =    F
 cg2d: Sum(rhs),rhsMax =   7.73551084252148E-01  3.29048622473278E+00
 cg2d: Sum(rhs),rhsMax =   1.52697356831069E+00  4.17022503401875E+00
 cg2d: Sum(rhs),rhsMax =   2.27601762251653E+00  4.04197234590783E+00
 cg2d: Sum(rhs),rhsMax =   3.02165604161519E+00  3.85995024139163E+00
 cg2d: Sum(rhs),rhsMax =   3.74608556499425E+00  3.61302463064138E+00
 cg2d: Sum(rhs),rhsMax =   4.45761412607030E+00  3.33597384003777E+00
 cg2d: Sum(rhs),rhsMax =   5.15911007644007E+00  3.10707883199502E+00
 cg2d: Sum(rhs),rhsMax =   5.85339066257538E+00  2.96283947161528E+00
(PID.TID 0000.0001) Did not write pickup because writePickupAtEnd = FALSE
(PID.TID 0000.0001) 
(PID.TID 0000.0001) == cost_profiles: begin ==
(PID.TID 0000.0001) == cost_profiles: end   ==
(PID.TID 0000.0001) 
(PID.TID 0000.0001) boxmean/horflux :  1  0.00000000000000E+00
(PID.TID 0000.0001) boxmean/horflux :  2  0.00000000000000E+00
(PID.TID 0000.0001) boxmean/horflux :  3  0.00000000000000E+00
(PID.TID 0000.0001) boxmean/horflux :  4  0.00000000000000E+00
(PID.TID 0000.0001) boxmean/horflux :  5  8.91736898765112E+00
(PID.TID 0000.0001) boxmean/horflux :  6  0.00000000000000E+00
(PID.TID 0000.0001) boxmean/horflux :  7  0.00000000000000E+00
(PID.TID 0000.0001) boxmean/horflux :  8  0.00000000000000E+00
(PID.TID 0000.0001) boxmean/horflux :  9  0.00000000000000E+00
(PID.TID 0000.0001) boxmean/horflux fc : 8.91736898765112E+00
(PID.TID 0000.0001) boxmean/horflux :  1  0.00000000000000E+00
(PID.TID 0000.0001) boxmean/horflux :  2  6.61126619742839E+06
(PID.TID 0000.0001) boxmean/horflux :  3 -2.69268961979167E+06
(PID.TID 0000.0001) boxmean/horflux :  4 -1.68597068195530E+07
(PID.TID 0000.0001) boxmean/horflux :  5 -2.66222847234701E+07
(PID.TID 0000.0001) boxmean/horflux :  6 -2.57707155099826E+07
(PID.TID 0000.0001) boxmean/horflux :  7 -1.27748585635851E+07
(PID.TID 0000.0001) boxmean/horflux :  8  9.16186015321180E+06
(PID.TID 0000.0001) boxmean/horflux :  9  3.41604626145833E+07
(PID.TID 0000.0001) boxmean/horflux fc :-3.47866662711589E+07
(PID.TID 0000.0001) Inside cost_gencost_moc ...
(PID.TID 0000.0001) Cost    3: m_trVol_step
(PID.TID 0000.0001) **Warning: temporal msk file: north10_maskT not found, using 1/nrecloc
(PID.TID 0000.0001) moc cost m_trVol_step  1  0.00000000000000E+00kmax:  1
(PID.TID 0000.0001) **Warning: temporal msk file: north10_maskT not found, using 1/nrecloc
(PID.TID 0000.0001) moc cost m_trVol_step  2 -3.35248229166667E+04kmax: 50
(PID.TID 0000.0001) **Warning: temporal msk file: north10_maskT not found, using 1/nrecloc
(PID.TID 0000.0001) moc cost m_trVol_step  3  2.69268963327154E+06kmax:  1
(PID.TID 0000.0001) **Warning: temporal msk file: north10_maskT not found, using 1/nrecloc
(PID.TID 0000.0001) moc cost m_trVol_step  4  1.68597068427073E+07kmax:  1
(PID.TID 0000.0001) **Warning: temporal msk file: north10_maskT not found, using 1/nrecloc
(PID.TID 0000.0001) moc cost m_trVol_step  5  2.66222846477954E+07kmax:  1
(PID.TID 0000.0001) **Warning: temporal msk file: north10_maskT not found, using 1/nrecloc
(PID.TID 0000.0001) moc cost m_trVol_step  6  2.57707153913148E+07kmax:  1
(PID.TID 0000.0001) **Warning: temporal msk file: north10_maskT not found, using 1/nrecloc
(PID.TID 0000.0001) moc cost m_trVol_step  7  1.27748586885666E+07kmax:  1
(PID.TID 0000.0001) **Warning: temporal msk file: north10_maskT not found, using 1/nrecloc
(PID.TID 0000.0001) moc cost m_trVol_step  8  2.77664357638889E+04kmax: 50
(PID.TID 0000.0001) **Warning: temporal msk file: north10_maskT not found, using 1/nrecloc
(PID.TID 0000.0001) moc cost m_trVol_step  9  2.83677986111111E+04kmax: 50
(PID.TID 0000.0001) moc fc:  8.47428646151140E+07
(PID.TID 0000.0001)  --> f_gencost = 0.891736898765112D+01 1
(PID.TID 0000.0001)  --> f_gencost =-0.347866662711589D+08 2
(PID.TID 0000.0001)  --> f_gencost = 0.847428646151140D+08 3
(PID.TID 0000.0001)  --> f_gentim2d = 0.999999955296517D-04 1
(PID.TID 0000.0001)  --> f_gentim2d = 0.000000000000000D+00 2
(PID.TID 0000.0001)  --> f_gentim2d = 0.000000000000000D+00 3
(PID.TID 0000.0001)  --> f_gentim2d = 0.000000000000000D+00 4
(PID.TID 0000.0001)  --> f_gentim2d = 0.000000000000000D+00 5
(PID.TID 0000.0001)  --> f_genarr3d = 0.000000000000000D+00 1
(PID.TID 0000.0001)  --> f_genarr3d = 0.000000000000000D+00 2
(PID.TID 0000.0001)  --> f_genarr3d = 0.000000000000000D+00 3
(PID.TID 0000.0001)  --> fc               = 0.139129888220466D+09
(PID.TID 0000.0001)   early fc =  0.000000000000000D+00
(PID.TID 0000.0001)   local fc =  0.792157162737795D+08
(PID.TID 0000.0001)  global fc =  0.139129888220466D+09
(PID.TID 0000.0001) grdchk perturb(-)fc: fcpertminus =  1.39129888220466E+08
grad-res -------------------------------
 grad-res     0    2    2    1    1    1    1    1   1.39129888418E+08  1.39129888658E+08  1.39129888220E+08
 grad-res     0    2    2    2    0    1    1    1   3.87030792236E+01  2.18800202012E+01  4.34669782350E-01
(PID.TID 0000.0001)  ADM  ref_cost_function      =  1.39129888418199E+08
(PID.TID 0000.0001)  ADM  adjoint_gradient       =  3.87030792236328E+01
(PID.TID 0000.0001)  ADM  finite-diff_grad       =  2.18800202012062E+01
(PID.TID 0000.0001) ====== End of gradient-check number   2 (ierr=  0) =======
(PID.TID 0000.0001) ====== Starts gradient-check number   3 (=ichknum) =======
 ph-test icomp, ncvarcomp, ichknum            3         594           3
 ph-grd _loc: bi, bj, icomptest, ichknum            1           1           2           3
 ph-grd -->hit<--            3           1           1           1
(PID.TID 0000.0001) grdchk pos: i,j,k=    3    1    1 ; bi,bj=   1   1 ; iobc=  1 ; rec=   1
(PID.TID 0000.0001) Start initial hydrostatic pressure computation
(PID.TID 0000.0001) Pressure is predetermined for buoyancyRelation OCEANIC
(PID.TID 0000.0001) 
(PID.TID 0000.0001) // =======================================================
(PID.TID 0000.0001) // Model current state
(PID.TID 0000.0001) // =======================================================
(PID.TID 0000.0001) 
(PID.TID 0000.0001) SOLVE_FOR_PRESSURE: putPmEinXvector =    F
 cg2d: Sum(rhs),rhsMax =   7.73551084252198E-01  3.29048622472200E+00
 cg2d: Sum(rhs),rhsMax =   1.52697358863699E+00  4.17022503395985E+00
 cg2d: Sum(rhs),rhsMax =   2.27601766174621E+00  4.04197234556664E+00
 cg2d: Sum(rhs),rhsMax =   3.02165609849880E+00  3.85995024020678E+00
 cg2d: Sum(rhs),rhsMax =   3.74608563824549E+00  3.61302462783527E+00
 cg2d: Sum(rhs),rhsMax =   4.45761421368439E+00  3.33597383511050E+00
 cg2d: Sum(rhs),rhsMax =   5.15911017650012E+00  3.10707882521312E+00
 cg2d: Sum(rhs),rhsMax =   5.85339077305372E+00  2.96283946410433E+00
(PID.TID 0000.0001) Did not write pickup because writePickupAtEnd = FALSE
(PID.TID 0000.0001) 
(PID.TID 0000.0001) == cost_profiles: begin ==
(PID.TID 0000.0001) == cost_profiles: end   ==
(PID.TID 0000.0001) 
(PID.TID 0000.0001) boxmean/horflux :  1  0.00000000000000E+00
(PID.TID 0000.0001) boxmean/horflux :  2  0.00000000000000E+00
(PID.TID 0000.0001) boxmean/horflux :  3  0.00000000000000E+00
(PID.TID 0000.0001) boxmean/horflux :  4  0.00000000000000E+00
(PID.TID 0000.0001) boxmean/horflux :  5  8.91736899440320E+00
(PID.TID 0000.0001) boxmean/horflux :  6  0.00000000000000E+00
(PID.TID 0000.0001) boxmean/horflux :  7  0.00000000000000E+00
(PID.TID 0000.0001) boxmean/horflux :  8  0.00000000000000E+00
(PID.TID 0000.0001) boxmean/horflux :  9  0.00000000000000E+00
(PID.TID 0000.0001) boxmean/horflux fc : 8.91736899440320E+00
(PID.TID 0000.0001) boxmean/horflux :  1  0.00000000000000E+00
(PID.TID 0000.0001) boxmean/horflux :  2  6.61126619742839E+06
(PID.TID 0000.0001) boxmean/horflux :  3 -2.69268961979167E+06
(PID.TID 0000.0001) boxmean/horflux :  4 -1.68597068195530E+07
(PID.TID 0000.0001) boxmean/horflux :  5 -2.66222846952582E+07
(PID.TID 0000.0001) boxmean/horflux :  6 -2.57707153849826E+07
(PID.TID 0000.0001) boxmean/horflux :  7 -1.27748584802517E+07
(PID.TID 0000.0001) boxmean/horflux :  8  9.16186029210069E+06
(PID.TID 0000.0001) boxmean/horflux :  9  3.41604628125000E+07
(PID.TID 0000.0001) boxmean/horflux fc :-3.47866656978082E+07
(PID.TID 0000.0001) Inside cost_gencost_moc ...
(PID.TID 0000.0001) Cost    3: m_trVol_step
(PID.TID 0000.0001) **Warning: temporal msk file: north10_maskT not found, using 1/nrecloc
(PID.TID 0000.0001) moc cost m_trVol_step  1  0.00000000000000E+00kmax:  1
(PID.TID 0000.0001) **Warning: temporal msk file: north10_maskT not found, using 1/nrecloc
(PID.TID 0000.0001) moc cost m_trVol_step  2 -3.35248229166667E+04kmax: 50
(PID.TID 0000.0001) **Warning: temporal msk file: north10_maskT not found, using 1/nrecloc
(PID.TID 0000.0001) moc cost m_trVol_step  3  2.69268962996208E+06kmax:  1
(PID.TID 0000.0001) **Warning: temporal msk file: north10_maskT not found, using 1/nrecloc
(PID.TID 0000.0001) moc cost m_trVol_step  4  1.68597068318634E+07kmax:  1
(PID.TID 0000.0001) **Warning: temporal msk file: north10_maskT not found, using 1/nrecloc
(PID.TID 0000.0001) moc cost m_trVol_step  5  2.66222846168463E+07kmax:  1
(PID.TID 0000.0001) **Warning: temporal msk file: north10_maskT not found, using 1/nrecloc
(PID.TID 0000.0001) moc cost m_trVol_step  6  2.57707153235541E+07kmax:  1
(PID.TID 0000.0001) **Warning: temporal msk file: north10_maskT not found, using 1/nrecloc
(PID.TID 0000.0001) moc cost m_trVol_step  7  1.27748585661505E+07kmax:  1
(PID.TID 0000.0001) **Warning: temporal msk file: north10_maskT not found, using 1/nrecloc
(PID.TID 0000.0001) moc cost m_trVol_step  8  2.77664357638889E+04kmax: 50
(PID.TID 0000.0001) **Warning: temporal msk file: north10_maskT not found, using 1/nrecloc
(PID.TID 0000.0001) moc cost m_trVol_step  9  2.83677986111111E+04kmax: 50
(PID.TID 0000.0001) moc fc:  8.47428643798347E+07
(PID.TID 0000.0001)  --> f_gencost = 0.891736899440320D+01 1
(PID.TID 0000.0001)  --> f_gencost =-0.347866656978082D+08 2
(PID.TID 0000.0001)  --> f_gencost = 0.847428643798347D+08 3
(PID.TID 0000.0001)  --> f_gentim2d = 0.999999955296517D-04 1
(PID.TID 0000.0001)  --> f_gentim2d = 0.000000000000000D+00 2
(PID.TID 0000.0001)  --> f_gentim2d = 0.000000000000000D+00 3
(PID.TID 0000.0001)  --> f_gentim2d = 0.000000000000000D+00 4
(PID.TID 0000.0001)  --> f_gentim2d = 0.000000000000000D+00 5
(PID.TID 0000.0001)  --> f_genarr3d = 0.000000000000000D+00 1
(PID.TID 0000.0001)  --> f_genarr3d = 0.000000000000000D+00 2
(PID.TID 0000.0001)  --> f_genarr3d = 0.000000000000000D+00 3
(PID.TID 0000.0001)  --> fc               = 0.139129888626059D+09
(PID.TID 0000.0001)   early fc =  0.000000000000000D+00
(PID.TID 0000.0001)   local fc =  0.792157166139880D+08
(PID.TID 0000.0001)  global fc =  0.139129888626059D+09
(PID.TID 0000.0001) grdchk perturb(+)fc: fcpertplus  =  1.39129888626059E+08
(PID.TID 0000.0001) Start initial hydrostatic pressure computation
(PID.TID 0000.0001) Pressure is predetermined for buoyancyRelation OCEANIC
(PID.TID 0000.0001) 
(PID.TID 0000.0001) // =======================================================
(PID.TID 0000.0001) // Model current state
(PID.TID 0000.0001) // =======================================================
(PID.TID 0000.0001) 
(PID.TID 0000.0001) SOLVE_FOR_PRESSURE: putPmEinXvector =    F
 cg2d: Sum(rhs),rhsMax =   7.73551084252126E-01  3.29048622473353E+00
 cg2d: Sum(rhs),rhsMax =   1.52697356689907E+00  4.17022503403125E+00
 cg2d: Sum(rhs),rhsMax =   2.27601761965553E+00  4.04197234599471E+00
 cg2d: Sum(rhs),rhsMax =   3.02165603735179E+00  3.85995024169212E+00
 cg2d: Sum(rhs),rhsMax =   3.74608555940367E+00  3.61302463132785E+00
 cg2d: Sum(rhs),rhsMax =   4.45761411924661E+00  3.33597384120507E+00
 cg2d: Sum(rhs),rhsMax =   5.15911006853139E+00  3.10707883357847E+00
 cg2d: Sum(rhs),rhsMax =   5.85339065367907E+00  2.96283947341552E+00
(PID.TID 0000.0001) Did not write pickup because writePickupAtEnd = FALSE
(PID.TID 0000.0001) 
(PID.TID 0000.0001) == cost_profiles: begin ==
(PID.TID 0000.0001) == cost_profiles: end   ==
(PID.TID 0000.0001) 
(PID.TID 0000.0001) boxmean/horflux :  1  0.00000000000000E+00
(PID.TID 0000.0001) boxmean/horflux :  2  0.00000000000000E+00
(PID.TID 0000.0001) boxmean/horflux :  3  0.00000000000000E+00
(PID.TID 0000.0001) boxmean/horflux :  4  0.00000000000000E+00
(PID.TID 0000.0001) boxmean/horflux :  5  8.91736898718545E+00
(PID.TID 0000.0001) boxmean/horflux :  6  0.00000000000000E+00
(PID.TID 0000.0001) boxmean/horflux :  7  0.00000000000000E+00
(PID.TID 0000.0001) boxmean/horflux :  8  0.00000000000000E+00
(PID.TID 0000.0001) boxmean/horflux :  9  0.00000000000000E+00
(PID.TID 0000.0001) boxmean/horflux fc : 8.91736898718545E+00
(PID.TID 0000.0001) boxmean/horflux :  1  0.00000000000000E+00
(PID.TID 0000.0001) boxmean/horflux :  2  6.61126619742839E+06
(PID.TID 0000.0001) boxmean/horflux :  3 -2.69268961979167E+06
(PID.TID 0000.0001) boxmean/horflux :  4 -1.68597068195530E+07
(PID.TID 0000.0001) boxmean/horflux :  5 -2.66222847234701E+07
(PID.TID 0000.0001) boxmean/horflux :  6 -2.57707154960937E+07
(PID.TID 0000.0001) boxmean/horflux :  7 -1.27748585635851E+07
(PID.TID 0000.0001) boxmean/horflux :  8  9.16186015842014E+06
(PID.TID 0000.0001) boxmean/horflux :  9  3.41604626145833E+07
(PID.TID 0000.0001) boxmean/horflux fc :-3.47866662520616E+07
(PID.TID 0000.0001) Inside cost_gencost_moc ...
(PID.TID 0000.0001) Cost    3: m_trVol_step
(PID.TID 0000.0001) **Warning: temporal msk file: north10_maskT not found, using 1/nrecloc
(PID.TID 0000.0001) moc cost m_trVol_step  1  0.00000000000000E+00kmax:  1
(PID.TID 0000.0001) **Warning: temporal msk file: north10_maskT not found, using 1/nrecloc
(PID.TID 0000.0001) moc cost m_trVol_step  2 -3.35248229166667E+04kmax: 50
(PID.TID 0000.0001) **Warning: temporal msk file: north10_maskT not found, using 1/nrecloc
(PID.TID 0000.0001) moc cost m_trVol_step  3  2.69268963240348E+06kmax:  1
(PID.TID 0000.0001) **Warning: temporal msk file: north10_maskT not found, using 1/nrecloc
(PID.TID 0000.0001) moc cost m_trVol_step  4  1.68597068422733E+07kmax:  1
(PID.TID 0000.0001) **Warning: temporal msk file: north10_maskT not found, using 1/nrecloc
(PID.TID 0000.0001) moc cost m_trVol_step  5  2.66222846473427E+07kmax:  1
(PID.TID 0000.0001) **Warning: temporal msk file: north10_maskT not found, using 1/nrecloc
(PID.TID 0000.0001) moc cost m_trVol_step  6  2.57707153862353E+07kmax:  1
(PID.TID 0000.0001) **Warning: temporal msk file: north10_maskT not found, using 1/nrecloc
(PID.TID 0000.0001) moc cost m_trVol_step  7  1.27748586808559E+07kmax:  1
(PID.TID 0000.0001) **Warning: temporal msk file: north10_maskT not found, using 1/nrecloc
(PID.TID 0000.0001) moc cost m_trVol_step  8  2.77664357638889E+04kmax: 50
(PID.TID 0000.0001) **Warning: temporal msk file: north10_maskT not found, using 1/nrecloc
(PID.TID 0000.0001) moc cost m_trVol_step  9  2.83677986111111E+04kmax: 50
(PID.TID 0000.0001) moc fc:  8.47428646005690E+07
(PID.TID 0000.0001)  --> f_gencost = 0.891736898718545D+01 1
(PID.TID 0000.0001)  --> f_gencost =-0.347866662520616D+08 2
(PID.TID 0000.0001)  --> f_gencost = 0.847428646005690D+08 3
(PID.TID 0000.0001)  --> f_gentim2d = 0.999999955296517D-04 1
(PID.TID 0000.0001)  --> f_gentim2d = 0.000000000000000D+00 2
(PID.TID 0000.0001)  --> f_gentim2d = 0.000000000000000D+00 3
(PID.TID 0000.0001)  --> f_gentim2d = 0.000000000000000D+00 4
(PID.TID 0000.0001)  --> f_gentim2d = 0.000000000000000D+00 5
(PID.TID 0000.0001)  --> f_genarr3d = 0.000000000000000D+00 1
(PID.TID 0000.0001)  --> f_genarr3d = 0.000000000000000D+00 2
(PID.TID 0000.0001)  --> f_genarr3d = 0.000000000000000D+00 3
(PID.TID 0000.0001)  --> fc               = 0.139129888220362D+09
(PID.TID 0000.0001)   early fc =  0.000000000000000D+00
(PID.TID 0000.0001)   local fc =  0.792157162551295D+08
(PID.TID 0000.0001)  global fc =  0.139129888220362D+09
(PID.TID 0000.0001) grdchk perturb(-)fc: fcpertminus =  1.39129888220362E+08
grad-res -------------------------------
 grad-res     0    3    3    1    1    1    1    1   1.39129888418E+08  1.39129888626E+08  1.39129888220E+08
 grad-res     0    3    3    3    0    1    1    1   3.31904220581E+01  2.02848345041E+01  3.88834692472E-01
(PID.TID 0000.0001)  ADM  ref_cost_function      =  1.39129888418199E+08
(PID.TID 0000.0001)  ADM  adjoint_gradient       =  3.31904220581055E+01
(PID.TID 0000.0001)  ADM  finite-diff_grad       =  2.02848345041275E+01
(PID.TID 0000.0001) ====== End of gradient-check number   3 (ierr=  0) =======
(PID.TID 0000.0001) ====== Starts gradient-check number   4 (=ichknum) =======
 ph-test icomp, ncvarcomp, ichknum            4         594           4
 ph-grd _loc: bi, bj, icomptest, ichknum            1           1           3           4
 ph-grd -->hit<--            4           1           1           1
(PID.TID 0000.0001) grdchk pos: i,j,k=    4    1    1 ; bi,bj=   1   1 ; iobc=  1 ; rec=   1
(PID.TID 0000.0001) Start initial hydrostatic pressure computation
(PID.TID 0000.0001) Pressure is predetermined for buoyancyRelation OCEANIC
(PID.TID 0000.0001) 
(PID.TID 0000.0001) // =======================================================
(PID.TID 0000.0001) // Model current state
(PID.TID 0000.0001) // =======================================================
(PID.TID 0000.0001) 
(PID.TID 0000.0001) SOLVE_FOR_PRESSURE: putPmEinXvector =    F
 cg2d: Sum(rhs),rhsMax =   7.73551084252183E-01  3.29048622472130E+00
 cg2d: Sum(rhs),rhsMax =   1.52697358994743E+00  4.17022503394058E+00
 cg2d: Sum(rhs),rhsMax =   2.27601766444567E+00  4.04197234543381E+00
 cg2d: Sum(rhs),rhsMax =   3.02165610263884E+00  3.85995023976384E+00
 cg2d: Sum(rhs),rhsMax =   3.74608564382629E+00  3.61302462687043E+00
 cg2d: Sum(rhs),rhsMax =   4.45761422084880E+00  3.33597383353500E+00
 cg2d: Sum(rhs),rhsMax =   5.15911018537207E+00  3.10707882314534E+00
 cg2d: Sum(rhs),rhsMax =   5.85339078379516E+00  2.96283946179787E+00
(PID.TID 0000.0001) Did not write pickup because writePickupAtEnd = FALSE
(PID.TID 0000.0001) 
(PID.TID 0000.0001) == cost_profiles: begin ==
(PID.TID 0000.0001) == cost_profiles: end   ==
(PID.TID 0000.0001) 
(PID.TID 0000.0001) boxmean/horflux :  1  0.00000000000000E+00
(PID.TID 0000.0001) boxmean/horflux :  2  0.00000000000000E+00
(PID.TID 0000.0001) boxmean/horflux :  3  0.00000000000000E+00
(PID.TID 0000.0001) boxmean/horflux :  4  0.00000000000000E+00
(PID.TID 0000.0001) boxmean/horflux :  5  8.91736899440320E+00
(PID.TID 0000.0001) boxmean/horflux :  6  0.00000000000000E+00
(PID.TID 0000.0001) boxmean/horflux :  7  0.00000000000000E+00
(PID.TID 0000.0001) boxmean/horflux :  8  0.00000000000000E+00
(PID.TID 0000.0001) boxmean/horflux :  9  0.00000000000000E+00
(PID.TID 0000.0001) boxmean/horflux fc : 8.91736899440320E+00
(PID.TID 0000.0001) boxmean/horflux :  1  0.00000000000000E+00
(PID.TID 0000.0001) boxmean/horflux :  2  6.61126619742839E+06
(PID.TID 0000.0001) boxmean/horflux :  3 -2.69268961979167E+06
(PID.TID 0000.0001) boxmean/horflux :  4 -1.68597068195530E+07
(PID.TID 0000.0001) boxmean/horflux :  5 -2.66222846952582E+07
(PID.TID 0000.0001) boxmean/horflux :  6 -2.57707153849826E+07
(PID.TID 0000.0001) boxmean/horflux :  7 -1.27748584941406E+07
(PID.TID 0000.0001) boxmean/horflux :  8  9.16186026258680E+06
(PID.TID 0000.0001) boxmean/horflux :  9  3.41604627812500E+07
(PID.TID 0000.0001) boxmean/horflux fc :-3.47866657724609E+07
(PID.TID 0000.0001) Inside cost_gencost_moc ...
(PID.TID 0000.0001) Cost    3: m_trVol_step
(PID.TID 0000.0001) **Warning: temporal msk file: north10_maskT not found, using 1/nrecloc
(PID.TID 0000.0001) moc cost m_trVol_step  1  0.00000000000000E+00kmax:  1
(PID.TID 0000.0001) **Warning: temporal msk file: north10_maskT not found, using 1/nrecloc
(PID.TID 0000.0001) moc cost m_trVol_step  2 -3.35248229166667E+04kmax: 50
(PID.TID 0000.0001) **Warning: temporal msk file: north10_maskT not found, using 1/nrecloc
(PID.TID 0000.0001) moc cost m_trVol_step  3  2.69268963083013E+06kmax:  1
(PID.TID 0000.0001) **Warning: temporal msk file: north10_maskT not found, using 1/nrecloc
(PID.TID 0000.0001) moc cost m_trVol_step  4  1.68597068320804E+07kmax:  1
(PID.TID 0000.0001) **Warning: temporal msk file: north10_maskT not found, using 1/nrecloc
(PID.TID 0000.0001) moc cost m_trVol_step  5  2.66222846187748E+07kmax:  1
(PID.TID 0000.0001) **Warning: temporal msk file: north10_maskT not found, using 1/nrecloc
(PID.TID 0000.0001) moc cost m_trVol_step  6  2.57707153311462E+07kmax:  1
(PID.TID 0000.0001) **Warning: temporal msk file: north10_maskT not found, using 1/nrecloc
(PID.TID 0000.0001) moc cost m_trVol_step  7  1.27748585944792E+07kmax:  1
(PID.TID 0000.0001) **Warning: temporal msk file: north10_maskT not found, using 1/nrecloc
(PID.TID 0000.0001) moc cost m_trVol_step  8  2.77664357638889E+04kmax: 50
(PID.TID 0000.0001) **Warning: temporal msk file: north10_maskT not found, using 1/nrecloc
(PID.TID 0000.0001) moc cost m_trVol_step  9  2.83677986111111E+04kmax: 50
(PID.TID 0000.0001) moc fc:  8.47428644187692E+07
(PID.TID 0000.0001)  --> f_gencost = 0.891736899440320D+01 1
(PID.TID 0000.0001)  --> f_gencost =-0.347866657724609D+08 2
(PID.TID 0000.0001)  --> f_gencost = 0.847428644187692D+08 3
(PID.TID 0000.0001)  --> f_gentim2d = 0.999999955296517D-04 1
(PID.TID 0000.0001)  --> f_gentim2d = 0.000000000000000D+00 2
(PID.TID 0000.0001)  --> f_gentim2d = 0.000000000000000D+00 3
(PID.TID 0000.0001)  --> f_gentim2d = 0.000000000000000D+00 4
(PID.TID 0000.0001)  --> f_gentim2d = 0.000000000000000D+00 5
(PID.TID 0000.0001)  --> f_genarr3d = 0.000000000000000D+00 1
(PID.TID 0000.0001)  --> f_genarr3d = 0.000000000000000D+00 2
(PID.TID 0000.0001)  --> f_genarr3d = 0.000000000000000D+00 3
(PID.TID 0000.0001)  --> fc               = 0.139129888590340D+09
(PID.TID 0000.0001)   early fc =  0.000000000000000D+00
(PID.TID 0000.0001)   local fc =  0.792157165828454D+08
(PID.TID 0000.0001)  global fc =  0.139129888590340D+09
(PID.TID 0000.0001) grdchk perturb(+)fc: fcpertplus  =  1.39129888590340E+08
(PID.TID 0000.0001) Start initial hydrostatic pressure computation
(PID.TID 0000.0001) Pressure is predetermined for buoyancyRelation OCEANIC
(PID.TID 0000.0001) 
(PID.TID 0000.0001) // =======================================================
(PID.TID 0000.0001) // Model current state
(PID.TID 0000.0001) // =======================================================
(PID.TID 0000.0001) 
(PID.TID 0000.0001) SOLVE_FOR_PRESSURE: putPmEinXvector =    F
 cg2d: Sum(rhs),rhsMax =   7.73551084252190E-01  3.29048622473423E+00
 cg2d: Sum(rhs),rhsMax =   1.52697356558878E+00  4.17022503405074E+00
 cg2d: Sum(rhs),rhsMax =   2.27601761695649E+00  4.04197234612793E+00
 cg2d: Sum(rhs),rhsMax =   3.02165603321211E+00  3.85995024213286E+00
 cg2d: Sum(rhs),rhsMax =   3.74608555382292E+00  3.61302463229192E+00
 cg2d: Sum(rhs),rhsMax =   4.45761411208255E+00  3.33597384277527E+00
 cg2d: Sum(rhs),rhsMax =   5.15911005966026E+00  3.10707883564385E+00
 cg2d: Sum(rhs),rhsMax =   5.85339064293876E+00  2.96283947572090E+00
(PID.TID 0000.0001) Did not write pickup because writePickupAtEnd = FALSE
(PID.TID 0000.0001) 
(PID.TID 0000.0001) == cost_profiles: begin ==
(PID.TID 0000.0001) == cost_profiles: end   ==
(PID.TID 0000.0001) 
(PID.TID 0000.0001) boxmean/horflux :  1  0.00000000000000E+00
(PID.TID 0000.0001) boxmean/horflux :  2  0.00000000000000E+00
(PID.TID 0000.0001) boxmean/horflux :  3  0.00000000000000E+00
(PID.TID 0000.0001) boxmean/horflux :  4  0.00000000000000E+00
(PID.TID 0000.0001) boxmean/horflux :  5  8.91736898718545E+00
(PID.TID 0000.0001) boxmean/horflux :  6  0.00000000000000E+00
(PID.TID 0000.0001) boxmean/horflux :  7  0.00000000000000E+00
(PID.TID 0000.0001) boxmean/horflux :  8  0.00000000000000E+00
(PID.TID 0000.0001) boxmean/horflux :  9  0.00000000000000E+00
(PID.TID 0000.0001) boxmean/horflux fc : 8.91736898718545E+00
(PID.TID 0000.0001) boxmean/horflux :  1  0.00000000000000E+00
(PID.TID 0000.0001) boxmean/horflux :  2  6.61126619742839E+06
(PID.TID 0000.0001) boxmean/horflux :  3 -2.69268961979167E+06
(PID.TID 0000.0001) boxmean/horflux :  4 -1.68597068195530E+07
(PID.TID 0000.0001) boxmean/horflux :  5 -2.66222847234701E+07
(PID.TID 0000.0001) boxmean/horflux :  6 -2.57707154960937E+07
(PID.TID 0000.0001) boxmean/horflux :  7 -1.27748585635851E+07
(PID.TID 0000.0001) boxmean/horflux :  8  9.16186021571180E+06
(PID.TID 0000.0001) boxmean/horflux :  9  3.41604626597222E+07
(PID.TID 0000.0001) boxmean/horflux fc :-3.47866661496311E+07
(PID.TID 0000.0001) Inside cost_gencost_moc ...
(PID.TID 0000.0001) Cost    3: m_trVol_step
(PID.TID 0000.0001) **Warning: temporal msk file: north10_maskT not found, using 1/nrecloc
(PID.TID 0000.0001) moc cost m_trVol_step  1  0.00000000000000E+00kmax:  1
(PID.TID 0000.0001) **Warning: temporal msk file: north10_maskT not found, using 1/nrecloc
(PID.TID 0000.0001) moc cost m_trVol_step  2 -3.35248229166667E+04kmax: 50
(PID.TID 0000.0001) **Warning: temporal msk file: north10_maskT not found, using 1/nrecloc
(PID.TID 0000.0001) moc cost m_trVol_step  3  2.69268963234923E+06kmax:  1
(PID.TID 0000.0001) **Warning: temporal msk file: north10_maskT not found, using 1/nrecloc
(PID.TID 0000.0001) moc cost m_trVol_step  4  1.68597068405372E+07kmax:  1
(PID.TID 0000.0001) **Warning: temporal msk file: north10_maskT not found, using 1/nrecloc
(PID.TID 0000.0001) moc cost m_trVol_step  5  2.66222846424336E+07kmax:  1
(PID.TID 0000.0001) **Warning: temporal msk file: north10_maskT not found, using 1/nrecloc
(PID.TID 0000.0001) moc cost m_trVol_step  6  2.57707153751982E+07kmax:  1
(PID.TID 0000.0001) **Warning: temporal msk file: north10_maskT not found, using 1/nrecloc
(PID.TID 0000.0001) moc cost m_trVol_step  7  1.27748586532171E+07kmax:  1
(PID.TID 0000.0001) **Warning: temporal msk file: north10_maskT not found, using 1/nrecloc
(PID.TID 0000.0001) moc cost m_trVol_step  8  2.77664357638889E+04kmax: 50
(PID.TID 0000.0001) **Warning: temporal msk file: north10_maskT not found, using 1/nrecloc
(PID.TID 0000.0001) moc cost m_trVol_step  9  2.83677986111111E+04kmax: 50
(PID.TID 0000.0001) moc fc:  8.47428645551936E+07
(PID.TID 0000.0001)  --> f_gencost = 0.891736898718545D+01 1
(PID.TID 0000.0001)  --> f_gencost =-0.347866661496311D+08 2
(PID.TID 0000.0001)  --> f_gencost = 0.847428645551936D+08 3
(PID.TID 0000.0001)  --> f_gentim2d = 0.999999955296517D-04 1
(PID.TID 0000.0001)  --> f_gentim2d = 0.000000000000000D+00 2
(PID.TID 0000.0001)  --> f_gentim2d = 0.000000000000000D+00 3
(PID.TID 0000.0001)  --> f_gentim2d = 0.000000000000000D+00 4
(PID.TID 0000.0001)  --> f_gentim2d = 0.000000000000000D+00 5
(PID.TID 0000.0001)  --> f_genarr3d = 0.000000000000000D+00 1
(PID.TID 0000.0001)  --> f_genarr3d = 0.000000000000000D+00 2
(PID.TID 0000.0001)  --> f_genarr3d = 0.000000000000000D+00 3
(PID.TID 0000.0001)  --> fc               = 0.139129888277417D+09
(PID.TID 0000.0001)   early fc =  0.000000000000000D+00
(PID.TID 0000.0001)   local fc =  0.792157163121847D+08
(PID.TID 0000.0001)  global fc =  0.139129888277417D+09
(PID.TID 0000.0001) grdchk perturb(-)fc: fcpertminus =  1.39129888277417E+08
grad-res -------------------------------
 grad-res     0    4    4    1    1    1    1    1   1.39129888418E+08  1.39129888590E+08  1.39129888277E+08
 grad-res     0    4    4    4    0    1    1    1   2.02525329590E+01  1.56461626291E+01  2.27446627994E-01
(PID.TID 0000.0001)  ADM  ref_cost_function      =  1.39129888418199E+08
(PID.TID 0000.0001)  ADM  adjoint_gradient       =  2.02525329589844E+01
(PID.TID 0000.0001)  ADM  finite-diff_grad       =  1.56461626291275E+01
(PID.TID 0000.0001) ====== End of gradient-check number   4 (ierr=  0) =======
(PID.TID 0000.0001) 
(PID.TID 0000.0001) // =======================================================
(PID.TID 0000.0001) // Gradient check results  >>> START <<<
(PID.TID 0000.0001) // =======================================================
(PID.TID 0000.0001) 
(PID.TID 0000.0001)  EPS =   1.000000E-02
(PID.TID 0000.0001) 
(PID.TID 0000.0001) grdchk output h.p:  Id Itile Jtile LAYER   bi   bj   X(Id)           X(Id)+/-EPS
(PID.TID 0000.0001) grdchk output h.c:  Id  FC                   FC1                  FC2
(PID.TID 0000.0001) grdchk output h.g:  Id     FC1-FC2/(2*EPS)      ADJ GRAD(FC)         1-FDGRD/ADGRD
(PID.TID 0000.0001) 
(PID.TID 0000.0001) grdchk output (p):   1     1     1     1    1    1   0.000000000E+00 -1.000000000E-02
(PID.TID 0000.0001) grdchk output (c):   1  1.3912988841820E+08  1.3912988867228E+08  1.3912988821784E+08
(PID.TID 0000.0001) grdchk output (g):   1     2.2722361981869E+01  3.4007553100586E+01  3.3184366676833E-01
(PID.TID 0000.0001) 
(PID.TID 0000.0001) grdchk output (p):   2     2     1     1    1    1   0.000000000E+00 -1.000000000E-02
(PID.TID 0000.0001) grdchk output (c):   2  1.3912988841820E+08  1.3912988865807E+08  1.3912988822047E+08
(PID.TID 0000.0001) grdchk output (g):   2     2.1880020201206E+01  3.8703079223633E+01  4.3466978235040E-01
(PID.TID 0000.0001) 
(PID.TID 0000.0001) grdchk output (p):   3     3     1     1    1    1   0.000000000E+00 -1.000000000E-02
(PID.TID 0000.0001) grdchk output (c):   3  1.3912988841820E+08  1.3912988862606E+08  1.3912988822036E+08
(PID.TID 0000.0001) grdchk output (g):   3     2.0284834504128E+01  3.3190422058105E+01  3.8883469247196E-01
(PID.TID 0000.0001) 
(PID.TID 0000.0001) grdchk output (p):   4     4     1     1    1    1   0.000000000E+00 -1.000000000E-02
(PID.TID 0000.0001) grdchk output (c):   4  1.3912988841820E+08  1.3912988859034E+08  1.3912988827742E+08
(PID.TID 0000.0001) grdchk output (g):   4     1.5646162629128E+01  2.0252532958984E+01  2.2744662799393E-01
(PID.TID 0000.0001) 
(PID.TID 0000.0001) grdchk  summary  :  RMS of    4 ratios =  3.5425359049640E-01
(PID.TID 0000.0001) 
(PID.TID 0000.0001) // =======================================================
(PID.TID 0000.0001) // Gradient check results  >>> END <<<
(PID.TID 0000.0001) // =======================================================
(PID.TID 0000.0001) 
(PID.TID 0000.0001)   Seconds in section "ALL                    [THE_MODEL_MAIN]":
(PID.TID 0000.0001)           User time:   237.33950729668140
(PID.TID 0000.0001)         System time:   3.3231501132249832
(PID.TID 0000.0001)     Wall clock time:   243.24364805221558
(PID.TID 0000.0001)          No. starts:           1
(PID.TID 0000.0001)           No. stops:           1
(PID.TID 0000.0001)   Seconds in section "INITIALISE_FIXED       [THE_MODEL_MAIN]":
(PID.TID 0000.0001)           User time:   1.0174430571496487
(PID.TID 0000.0001)         System time:  0.36162599548697472
(PID.TID 0000.0001)     Wall clock time:   1.4733288288116455
(PID.TID 0000.0001)          No. starts:           1
(PID.TID 0000.0001)           No. stops:           1
(PID.TID 0000.0001)   Seconds in section "ADTHE_MAIN_LOOP          [ADJOINT RUN]":
(PID.TID 0000.0001)           User time:   136.14767813682556
(PID.TID 0000.0001)         System time:   2.0617299973964691
(PID.TID 0000.0001)     Wall clock time:   139.23218297958374
(PID.TID 0000.0001)          No. starts:           1
(PID.TID 0000.0001)           No. stops:           1
(PID.TID 0000.0001)   Seconds in section "FORWARD_STEP        [MAIN_DO_LOOP]":
(PID.TID 0000.0001)           User time:   112.26063871383667
(PID.TID 0000.0001)         System time:  0.41744196414947510
(PID.TID 0000.0001)     Wall clock time:   114.12292695045471
(PID.TID 0000.0001)          No. starts:          80
(PID.TID 0000.0001)           No. stops:          80
(PID.TID 0000.0001)   Seconds in section "UPDATE_R_STAR       [FORWARD_STEP]":
(PID.TID 0000.0001)           User time:   2.2429628372192383
(PID.TID 0000.0001)         System time:   4.6021938323974609E-003
(PID.TID 0000.0001)     Wall clock time:   2.2692279815673828
(PID.TID 0000.0001)          No. starts:         160
(PID.TID 0000.0001)           No. stops:         160
(PID.TID 0000.0001)   Seconds in section "LOAD_FIELDS_DRIVER  [FORWARD_STEP]":
(PID.TID 0000.0001)           User time:   1.7211401462554932
(PID.TID 0000.0001)         System time:   7.1518182754516602E-002
(PID.TID 0000.0001)     Wall clock time:   1.8028063774108887
(PID.TID 0000.0001)          No. starts:          80
(PID.TID 0000.0001)           No. stops:          80
(PID.TID 0000.0001)   Seconds in section "EXF_GETFORCING     [LOAD_FLDS_DRIVER]":
(PID.TID 0000.0001)           User time:   1.7525734901428223
(PID.TID 0000.0001)         System time:   6.3221037387847900E-002
(PID.TID 0000.0001)     Wall clock time:   1.8259701728820801
(PID.TID 0000.0001)          No. starts:          88
(PID.TID 0000.0001)           No. stops:          88
(PID.TID 0000.0001)   Seconds in section "EXTERNAL_FLDS_LOAD [LOAD_FLDS_DRIVER]":
(PID.TID 0000.0001)           User time:   8.9931488037109375E-004
(PID.TID 0000.0001)         System time:   9.9539756774902344E-006
(PID.TID 0000.0001)     Wall clock time:   8.9216232299804688E-004
(PID.TID 0000.0001)          No. starts:          88
(PID.TID 0000.0001)           No. stops:          88
(PID.TID 0000.0001)   Seconds in section "CTRL_MAP_FORCING  [FORWARD_STEP]":
(PID.TID 0000.0001)           User time:  0.27143526077270508
(PID.TID 0000.0001)         System time:   6.3109397888183594E-004
(PID.TID 0000.0001)     Wall clock time:  0.27219510078430176
(PID.TID 0000.0001)          No. starts:          80
(PID.TID 0000.0001)           No. stops:          80
(PID.TID 0000.0001)   Seconds in section "DO_ATMOSPHERIC_PHYS [FORWARD_STEP]":
(PID.TID 0000.0001)           User time:   7.4431657791137695E-002
(PID.TID 0000.0001)         System time:   3.9690732955932617E-004
(PID.TID 0000.0001)     Wall clock time:   7.4881553649902344E-002
(PID.TID 0000.0001)          No. starts:          80
(PID.TID 0000.0001)           No. stops:          80
(PID.TID 0000.0001)   Seconds in section "DO_OCEANIC_PHYS     [FORWARD_STEP]":
(PID.TID 0000.0001)           User time:   25.033445596694946
(PID.TID 0000.0001)         System time:   8.7112665176391602E-002
(PID.TID 0000.0001)     Wall clock time:   25.442080974578857
(PID.TID 0000.0001)          No. starts:          80
(PID.TID 0000.0001)           No. stops:          80
(PID.TID 0000.0001)   Seconds in section "SEAICE_MODEL    [DO_OCEANIC_PHYS]":
(PID.TID 0000.0001)           User time:   2.6809182167053223
(PID.TID 0000.0001)         System time:   4.2176246643066406E-003
(PID.TID 0000.0001)     Wall clock time:   2.7087988853454590
(PID.TID 0000.0001)          No. starts:          88
(PID.TID 0000.0001)           No. stops:          88
(PID.TID 0000.0001)   Seconds in section "SEAICE_DYNSOLVER   [SEAICE_MODEL]":
(PID.TID 0000.0001)           User time:   2.0526115894317627
(PID.TID 0000.0001)         System time:   3.1709671020507812E-005
(PID.TID 0000.0001)     Wall clock time:   2.0752863883972168
(PID.TID 0000.0001)          No. starts:          88
(PID.TID 0000.0001)           No. stops:          88
(PID.TID 0000.0001)   Seconds in section "GGL90_CALC [DO_OCEANIC_PHYS]":
(PID.TID 0000.0001)           User time:   7.7539994716644287
(PID.TID 0000.0001)         System time:   1.5686690807342529E-002
(PID.TID 0000.0001)     Wall clock time:   7.8586127758026123
(PID.TID 0000.0001)          No. starts:         264
(PID.TID 0000.0001)           No. stops:         264
(PID.TID 0000.0001)   Seconds in section "DYNAMICS            [FORWARD_STEP]":
(PID.TID 0000.0001)           User time:   23.197974920272827
(PID.TID 0000.0001)         System time:   3.0181407928466797E-003
(PID.TID 0000.0001)     Wall clock time:   23.530932664871216
(PID.TID 0000.0001)          No. starts:          80
(PID.TID 0000.0001)           No. stops:          80
(PID.TID 0000.0001)   Seconds in section "UPDATE_CG2D         [FORWARD_STEP]":
(PID.TID 0000.0001)           User time:   3.4762659072875977
(PID.TID 0000.0001)         System time:   7.9611539840698242E-003
(PID.TID 0000.0001)     Wall clock time:   3.5175635814666748
(PID.TID 0000.0001)          No. starts:          80
(PID.TID 0000.0001)           No. stops:          80
(PID.TID 0000.0001)   Seconds in section "SOLVE_FOR_PRESSURE  [FORWARD_STEP]":
(PID.TID 0000.0001)           User time:   1.6285474300384521
(PID.TID 0000.0001)         System time:   4.4992566108703613E-003
(PID.TID 0000.0001)     Wall clock time:   1.6676394939422607
(PID.TID 0000.0001)          No. starts:          80
(PID.TID 0000.0001)           No. stops:          80
(PID.TID 0000.0001)   Seconds in section "MOM_CORRECTION_STEP [FORWARD_STEP]":
(PID.TID 0000.0001)           User time:  0.57437610626220703
(PID.TID 0000.0001)         System time:   8.9049339294433594E-005
(PID.TID 0000.0001)     Wall clock time:  0.57523679733276367
(PID.TID 0000.0001)          No. starts:          80
(PID.TID 0000.0001)           No. stops:          80
(PID.TID 0000.0001)   Seconds in section "INTEGR_CONTINUITY   [FORWARD_STEP]":
(PID.TID 0000.0001)           User time:   1.2640857696533203
(PID.TID 0000.0001)         System time:   3.9329528808593750E-003
(PID.TID 0000.0001)     Wall clock time:   1.2746233940124512
(PID.TID 0000.0001)          No. starts:          80
(PID.TID 0000.0001)           No. stops:          80
(PID.TID 0000.0001)   Seconds in section "CALC_R_STAR         [FORWARD_STEP]":
(PID.TID 0000.0001)           User time:   9.3845129013061523E-002
(PID.TID 0000.0001)         System time:   3.5047531127929688E-005
(PID.TID 0000.0001)     Wall clock time:   9.3923568725585938E-002
(PID.TID 0000.0001)          No. starts:          80
(PID.TID 0000.0001)           No. stops:          80
(PID.TID 0000.0001)   Seconds in section "BLOCKING_EXCHANGES  [FORWARD_STEP]":
(PID.TID 0000.0001)           User time:   5.4700100421905518
(PID.TID 0000.0001)         System time:  0.12909984588623047
(PID.TID 0000.0001)     Wall clock time:   5.6850764751434326
(PID.TID 0000.0001)          No. starts:         160
(PID.TID 0000.0001)           No. stops:         160
(PID.TID 0000.0001)   Seconds in section "THERMODYNAMICS      [FORWARD_STEP]":
(PID.TID 0000.0001)           User time:   26.233124732971191
(PID.TID 0000.0001)         System time:   8.3622932434082031E-003
(PID.TID 0000.0001)     Wall clock time:   26.558813095092773
(PID.TID 0000.0001)          No. starts:          80
(PID.TID 0000.0001)           No. stops:          80
(PID.TID 0000.0001)   Seconds in section "TRC_CORRECTION_STEP [FORWARD_STEP]":
(PID.TID 0000.0001)           User time:   6.8163871765136719E-004
(PID.TID 0000.0001)         System time:   5.8412551879882812E-006
(PID.TID 0000.0001)     Wall clock time:   8.0513954162597656E-004
(PID.TID 0000.0001)          No. starts:          80
(PID.TID 0000.0001)           No. stops:          80
(PID.TID 0000.0001)   Seconds in section "MONITOR             [FORWARD_STEP]":
(PID.TID 0000.0001)           User time:  0.27606725692749023
(PID.TID 0000.0001)         System time:   1.4579296112060547E-004
(PID.TID 0000.0001)     Wall clock time:  0.27622723579406738
(PID.TID 0000.0001)          No. starts:          80
(PID.TID 0000.0001)           No. stops:          80
(PID.TID 0000.0001)   Seconds in section "COST_TILE           [FORWARD_STEP]":
(PID.TID 0000.0001)           User time:   7.0500373840332031E-004
(PID.TID 0000.0001)         System time:   7.3313713073730469E-006
(PID.TID 0000.0001)     Wall clock time:   7.3552131652832031E-004
(PID.TID 0000.0001)          No. starts:          80
(PID.TID 0000.0001)           No. stops:          80
(PID.TID 0000.0001)   Seconds in section "DO_THE_MODEL_IO     [FORWARD_STEP]":
(PID.TID 0000.0001)           User time:  0.19538784027099609
(PID.TID 0000.0001)         System time:   2.7543723583221436E-002
(PID.TID 0000.0001)     Wall clock time:  0.24445319175720215
(PID.TID 0000.0001)          No. starts:          80
(PID.TID 0000.0001)           No. stops:          80
(PID.TID 0000.0001)   Seconds in section "DO_WRITE_PICKUP     [FORWARD_STEP]":
(PID.TID 0000.0001)           User time:  0.12894916534423828
(PID.TID 0000.0001)         System time:   6.7982852458953857E-002
(PID.TID 0000.0001)     Wall clock time:  0.19780039787292480
(PID.TID 0000.0001)          No. starts:          80
(PID.TID 0000.0001)           No. stops:          80
(PID.TID 0000.0001)   Seconds in section "COST_GENCOST_ALL    [ECCO SPIN-DOWN]":
(PID.TID 0000.0001)           User time:   1.0547409057617188
(PID.TID 0000.0001)         System time:  0.13522613048553467
(PID.TID 0000.0001)     Wall clock time:   1.2028107643127441
(PID.TID 0000.0001)          No. starts:           9
(PID.TID 0000.0001)           No. stops:           9
(PID.TID 0000.0001)   Seconds in section "CTRL_COST_DRIVER [ECCO SPIN-DOWN]":
(PID.TID 0000.0001)           User time:  0.42969894409179688
(PID.TID 0000.0001)         System time:   8.3884298801422119E-002
(PID.TID 0000.0001)     Wall clock time:  0.52539014816284180
(PID.TID 0000.0001)          No. starts:           9
(PID.TID 0000.0001)           No. stops:           9
(PID.TID 0000.0001)   Seconds in section "I/O (WRITE)        [ADJOINT LOOP]":
(PID.TID 0000.0001)           User time:   9.5024108886718750E-003
(PID.TID 0000.0001)         System time:   1.5735626220703125E-005
(PID.TID 0000.0001)     Wall clock time:   9.2756748199462891E-003
(PID.TID 0000.0001)          No. starts:          24
(PID.TID 0000.0001)           No. stops:          24
(PID.TID 0000.0001)   Seconds in section "CTRL_PACK           [THE_MODEL_MAIN]":
(PID.TID 0000.0001)           User time:  0.17579650878906250
(PID.TID 0000.0001)         System time:   3.9963960647583008E-002
(PID.TID 0000.0001)     Wall clock time:  0.22361397743225098
(PID.TID 0000.0001)          No. starts:           1
(PID.TID 0000.0001)           No. stops:           1
(PID.TID 0000.0001)   Seconds in section "CTRL_PACK     [THE_MODEL_MAIN]":
(PID.TID 0000.0001)           User time:  0.19885253906250000
(PID.TID 0000.0001)         System time:   2.7957201004028320E-002
(PID.TID 0000.0001)     Wall clock time:  0.23233008384704590
(PID.TID 0000.0001)          No. starts:           1
(PID.TID 0000.0001)           No. stops:           1
(PID.TID 0000.0001)   Seconds in section "GRDCHK_MAIN         [THE_MODEL_MAIN]":
(PID.TID 0000.0001)           User time:   99.799591064453125
(PID.TID 0000.0001)         System time:  0.83180904388427734
(PID.TID 0000.0001)     Wall clock time:   102.07504296302795
(PID.TID 0000.0001)          No. starts:           1
(PID.TID 0000.0001)           No. stops:           1
(PID.TID 0000.0001)   Seconds in section "INITIALISE_VARIA    [THE_MAIN_LOOP]":
(PID.TID 0000.0001)           User time:   6.9145355224609375
(PID.TID 0000.0001)         System time:  0.24347591400146484
(PID.TID 0000.0001)     Wall clock time:   7.1907601356506348
(PID.TID 0000.0001)          No. starts:           8
(PID.TID 0000.0001)           No. stops:           8
(PID.TID 0000.0001)   Seconds in section "MAIN LOOP           [THE_MAIN_LOOP]":
(PID.TID 0000.0001)           User time:   92.815917968750000
(PID.TID 0000.0001)         System time:  0.58026194572448730
(PID.TID 0000.0001)     Wall clock time:   94.805879592895508
(PID.TID 0000.0001)          No. starts:           8
(PID.TID 0000.0001)           No. stops:           8
(PID.TID 0000.0001)   Seconds in section "COST_AVERAGESFIELDS [MAIN_DO_LOOP]":
(PID.TID 0000.0001)           User time:   3.9235687255859375
(PID.TID 0000.0001)         System time:  0.13424205780029297
(PID.TID 0000.0001)     Wall clock time:   4.1720666885375977
(PID.TID 0000.0001)          No. starts:          64
(PID.TID 0000.0001)           No. stops:          64
(PID.TID 0000.0001)   Seconds in section "PROFILES_INLOOP    [MAIN_DO_LOOP]":
(PID.TID 0000.0001)           User time:   1.1184692382812500E-002
(PID.TID 0000.0001)         System time:   2.3961067199707031E-004
(PID.TID 0000.0001)     Wall clock time:   1.1384248733520508E-002
(PID.TID 0000.0001)          No. starts:          64
(PID.TID 0000.0001)           No. stops:          64
(PID.TID 0000.0001)   Seconds in section "MAIN_DO_LOOP        [THE_MAIN_LOOP]":
(PID.TID 0000.0001)           User time:   86.990295410156250
(PID.TID 0000.0001)         System time:  0.25449061393737793
(PID.TID 0000.0001)     Wall clock time:   88.513238430023193
(PID.TID 0000.0001)          No. starts:          64
(PID.TID 0000.0001)           No. stops:          64
(PID.TID 0000.0001)   Seconds in section "COST_AVERAGESFIELDS [THE_MAIN_LOOP]":
(PID.TID 0000.0001)           User time:  0.40061950683593750
(PID.TID 0000.0001)         System time:   1.9749641418457031E-002
(PID.TID 0000.0001)     Wall clock time:  0.42521405220031738
(PID.TID 0000.0001)          No. starts:           8
(PID.TID 0000.0001)           No. stops:           8
(PID.TID 0000.0001)   Seconds in section "PROFILES_INLOOP    [THE_MAIN_LOOP]":
(PID.TID 0000.0001)           User time:   1.2359619140625000E-003
(PID.TID 0000.0001)         System time:   6.9141387939453125E-006
(PID.TID 0000.0001)     Wall clock time:   1.2373924255371094E-003
(PID.TID 0000.0001)          No. starts:           8
(PID.TID 0000.0001)           No. stops:           8
(PID.TID 0000.0001)   Seconds in section "ECCO_COST_DRIVER   [THE_MAIN_LOOP]":
(PID.TID 0000.0001)           User time:   1.3296661376953125
(PID.TID 0000.0001)         System time:  0.17128825187683105
(PID.TID 0000.0001)     Wall clock time:   1.5180010795593262
(PID.TID 0000.0001)          No. starts:           8
(PID.TID 0000.0001)           No. stops:           8
(PID.TID 0000.0001)   Seconds in section "COST_FINAL         [ADJOINT SPIN-DOWN]":
(PID.TID 0000.0001)           User time:   1.3549804687500000E-002
(PID.TID 0000.0001)         System time:   8.3923339843750000E-005
(PID.TID 0000.0001)     Wall clock time:   1.3626337051391602E-002
(PID.TID 0000.0001)          No. starts:           8
(PID.TID 0000.0001)           No. stops:           8
(PID.TID 0000.0001) // ======================================================
(PID.TID 0000.0001) // Tile <-> Tile communication statistics
(PID.TID 0000.0001) // ======================================================
(PID.TID 0000.0001) // o Tile number: 000001
(PID.TID 0000.0001) //         No. X exchanges =              0
(PID.TID 0000.0001) //            Max. X spins =              0
(PID.TID 0000.0001) //            Min. X spins =     1000000000
(PID.TID 0000.0001) //          Total. X spins =              0
(PID.TID 0000.0001) //            Avg. X spins =       0.00E+00
(PID.TID 0000.0001) //         No. Y exchanges =              0
(PID.TID 0000.0001) //            Max. Y spins =              0
(PID.TID 0000.0001) //            Min. Y spins =     1000000000
(PID.TID 0000.0001) //          Total. Y spins =              0
(PID.TID 0000.0001) //            Avg. Y spins =       0.00E+00
(PID.TID 0000.0001) // o Tile number: 000002
(PID.TID 0000.0001) //         No. X exchanges =              0
(PID.TID 0000.0001) //            Max. X spins =              0
(PID.TID 0000.0001) //            Min. X spins =     1000000000
(PID.TID 0000.0001) //          Total. X spins =              0
(PID.TID 0000.0001) //            Avg. X spins =       0.00E+00
(PID.TID 0000.0001) //         No. Y exchanges =              0
(PID.TID 0000.0001) //            Max. Y spins =              0
(PID.TID 0000.0001) //            Min. Y spins =     1000000000
(PID.TID 0000.0001) //          Total. Y spins =              0
(PID.TID 0000.0001) //            Avg. Y spins =       0.00E+00
(PID.TID 0000.0001) // o Tile number: 000003
(PID.TID 0000.0001) //         No. X exchanges =              0
(PID.TID 0000.0001) //            Max. X spins =              0
(PID.TID 0000.0001) //            Min. X spins =     1000000000
(PID.TID 0000.0001) //          Total. X spins =              0
(PID.TID 0000.0001) //            Avg. X spins =       0.00E+00
(PID.TID 0000.0001) //         No. Y exchanges =              0
(PID.TID 0000.0001) //            Max. Y spins =              0
(PID.TID 0000.0001) //            Min. Y spins =     1000000000
(PID.TID 0000.0001) //          Total. Y spins =              0
(PID.TID 0000.0001) //            Avg. Y spins =       0.00E+00
(PID.TID 0000.0001) // o Thread number: 000001
(PID.TID 0000.0001) //            No. barriers =         237690
(PID.TID 0000.0001) //      Max. barrier spins =              1
(PID.TID 0000.0001) //      Min. barrier spins =              1
(PID.TID 0000.0001) //     Total barrier spins =         237690
(PID.TID 0000.0001) //      Avg. barrier spins =       1.00E+00
PROGRAM MAIN: Execution ended Normally
